version 2
run General-8-20170504-11:38:05-96304
attr configname General
attr datetime 20170504-11:38:05
attr experiment General
attr inifile omnetpp.ini
attr iterationvars ""
attr iterationvars2 $repetition=8
attr measurement ""
attr network Toll_road
attr processid 96304
attr repetition 8
attr replication #8
attr resultdir results
attr runnumber 8
attr seedset 8
param **.numBooths 3
param **.queue[*].serviceTime exponential(5.11s)
param **.source.interArrivalTime exponential(5.854s)
param **.source.numJobs 1000

vector 1  Toll_road.queue[1]  jobsProcessed:vector  ETV
attr interpolationmode  none
attr source  queueingTime
attr title  "jobs processed, vector"
vector 2  Toll_road.queue[2]  jobsProcessed:vector  ETV
attr interpolationmode  none
attr source  queueingTime
attr title  "jobs processed, vector"
vector 3  Toll_road.sink  lifeTime:vector  ETV
attr interpolationmode  none
attr title  "lifetime of arrived jobs, vector"
attr unit  s
vector 0  Toll_road.queue[0]  jobsProcessed:vector  ETV
attr interpolationmode  none
attr source  queueingTime
attr title  "jobs processed, vector"
0	13	24.072677146855	0
0	28	42.568372852788	0
0	48	66.014898406749	0
0	55	68.238353665583	2.097529654696
0	74	93.739700913759	0
0	89	100.330429959862	0
0	113	128.437990225419	0
0	141	160.800888788764	0
0	156	167.538102880001	0
0	167	177.005556120507	3.693500458308
0	183	203.259817530033	0
0	188	211.09185394907	0
0	211	236.407552364813	0
0	227	248.876884509422	0
0	251	273.763489754488	0
0	257	278.499154110878	0.344553729197
0	263	294.547167839483	0
0	267	298.161212034361	0.297946207186
0	276	305.507488836944	0
0	284	316.508209968794	0
0	294	323.295558783783	0
0	306	338.615797522499	11.742496885021
0	314	347.786754712315	0
0	333	367.101143064007	13.052966310217
0	358	390.11824044398	28.371119585254
0	360	390.796706677237	24.396387341876
0	378	401.131154790385	0
0	385	406.321236407674	2.646480248583
0	408	414.964780666377	0
0	449	445.265629604984	0
0	453	446.950611841609	0.100792664644
0	466	458.71458302097	0
0	509	492.790696076423	0
0	541	568.026466788142	0
0	558	599.427373593958	0
0	593	638.32721622018	0
0	600	643.520564167876	1.157136845047
0	621	657.707724383316	10.297082185528
0	623	659.246585061537	7.811322147136
0	635	667.305973456881	0
0	666	702.04558188993	0
0	676	716.863726830779	0
0	691	742.512487321841	0
0	713	761.112393604599	0
0	734	777.138362440469	0
0	751	792.628062020392	0
0	778	848.84011360617	0
0	786	855.892225520548	0
0	816	888.842709352553	0
0	843	910.134298712554	0
0	867	923.807638958571	0
0	889	949.704621921821	0
0	904	954.204905368283	0
0	948	1031.866615484093	0
0	956	1049.89531089864	0
0	991	1090.037992362497	0
0	1028	1117.52957930031	0
0	1043	1145.86378081829	0
0	1048	1150.365639028239	0
0	1058	1163.840627254207	0
0	1071	1187.452882351769	0
0	1088	1194.024489882251	3.518619912556
0	1111	1215.787954370638	0
0	1138	1244.603337996574	0
0	1142	1247.393023846891	0.283536341726
0	1153	1258.075301625168	0
0	1169	1286.797773043977	0
0	1181	1296.881200097273	0
0	1190	1306.5133048441	6.324503577923
0	1198	1318.718817216347	15.619079108063
0	1203	1321.161094319863	6.548369543424
0	1233	1363.170306473435	0
0	1238	1390.197452688813	0
0	1243	1392.394361735477	0
0	1253	1401.279815574815	0
0	1258	1420.735548129981	0
0	1269	1444.177291410802	0
0	1291	1477.35191364948	0
0	1297	1479.381293582424	1.502483901038
0	1302	1480.995265959674	0.947037511555
0	1312	1481.553254005147	0.379150417572
0	1351	1526.748226382174	0
0	1355	1530.997942490994	0.591479911167
0	1367	1537.550207183827	6.013888772118
0	1424	1595.047791505469	0
0	1463	1663.915851518318	0
0	1483	1680.745921709531	0
0	1488	1687.205467512068	0
0	1508	1728.766060047077	0
0	1513	1732.010514370299	0
0	1523	1746.224747356562	0
0	1528	1754.295571621132	0
0	1543	1761.115248069006	0
0	1584	1806.119283840293	0
0	1593	1820.583473491862	0
0	1603	1833.346963431025	0
0	1621	1850.647605311344	0
0	1631	1870.53426941506	0
0	1687	1938.241516106286	0
0	1700	1945.216532478719	0
0	1710	1957.60731558189	0
0	1723	1964.793211235025	0.111474028916
0	1729	1966.898471818957	0
0	1766	2013.344340028551	0
0	1782	2033.50939983787	0
0	1796	2044.550178815593	0
0	1823	2073.200376606869	0
0	1832	2079.315705534706	0.215405759509
0	1838	2083.708826318343	0
0	1848	2111.675436028697	0
0	1853	2113.625176437899	0
0	1861	2127.5286527884	0
0	1891	2159.527460457323	0
0	1908	2180.942383385172	0
0	1918	2184.228945474492	2.168796501377
0	1925	2187.28299186951	3.452198497216
0	1933	2207.286131038865	0
0	1937	2212.564982791645	1.466987341878
0	1961	2262.134429401866	0
0	1978	2277.23407168499	0
0	1983	2280.374205600547	0
0	1991	2291.931193255723	0
0	2013	2312.251801501266	0
0	2028	2334.779944628189	0
0	2037	2339.587127466941	2.681353515293
0	2049	2354.228188476399	0
0	2063	2361.946090534222	0
0	2068	2380.702337164418	0
0	2108	2433.822900142706	0
0	2113	2436.081011743662	0
0	2121	2444.679452225291	0
0	2138	2465.083334896629	0
0	2173	2526.818936668839	0
0	2183	2551.604182906909	0
0	2188	2578.32998005526	0
0	2203	2591.123905447265	0
0	2208	2596.892239710367	0
0	2218	2624.381946005293	0
0	2233	2696.945612148017	0
0	2241	2713.45339429752	0
0	2255	2721.291593042442	0.534291155379
0	2269	2736.623074669547	10.927815306515
0	2271	2736.944227518871	7.08500932158
0	2289	2744.526117832547	13.988633897732
0	2299	2748.432624306978	0
0	2311	2763.456321094454	0
0	2330	2780.015895988539	13.505768597468
0	2376	2838.979834712714	0
0	2382	2844.255365165781	0.192817903683
0	2417	2882.61737481934	0
0	2436	2910.92986952897	0
0	2442	2916.440114559309	3.655489702642
0	2461	2928.530830493522	9.803916282825
0	2472	2938.369082896829	13.13147992313
0	2478	2945.341643504232	0
0	2483	2945.511928279434	0
0	2498	2963.244060806622	0
0	2520	2992.022429442377	0
0	2531	3005.391042044897	0
0	2536	3010.621330666153	0
0	2541	3015.989246677951	0
0	2551	3032.853110945949	0
0	2558	3041.478544694298	0
0	2566	3045.792443502549	0
0	2573	3053.792212044439	0
0	2577	3054.939044429954	0.182496516767
0	2598	3089.828778979526	0
0	2633	3167.317062682716	0
0	2646	3182.409053243688	0
0	2653	3186.03185460622	3.365995952541
0	2655	3187.757976205691	1.966851007006
0	2666	3208.939777121565	0
0	2680	3214.346064722702	0
0	2685	3217.827411322809	0
0	2692	3221.851586586266	0
0	2703	3241.809319850171	0
0	2707	3247.474220002782	3.496779944324
0	2716	3257.027693523563	0
0	2731	3269.701565072313	0
0	2739	3274.004391203183	0
0	2747	3281.243572262542	0
0	2752	3281.624903436445	0
0	2771	3306.13963841986	0
0	2789	3317.889754821343	1.829067643084
0	2810	3327.896733872144	0
0	2828	3350.324585431624	0
0	2832	3352.203551255029	1.009830829065
0	2853	3376.276943123673	0
0	2857	3379.899685060481	0.475952719828
0	2876	3400.332795940415	3.386893966579
0	2885	3405.335895924181	0.038797269307
0	2907	3414.669624479079	6.498812696063
0	2909	3415.457717237603	5.115830989997
0	2933	3445.937761116908	0
0	2948	3466.459066198192	0
0	2963	3477.934418584698	6.107763000494
0	2965	3480.35772355378	5.018056617329
0	2975	3489.803772215044	1.084714894085
0	2982	3502.607774980389	6.531236078
0	3003	3516.611194378886	13.86526321996
0	3005	3519.138041547272	15.738370722815
0	3007	3520.785114291068	9.614394874231
0	3021	3537.410202183772	0
0	3036	3557.860478919742	0
0	3051	3577.816187523616	0
0	3058	3581.615598182956	0
0	3093	3646.001892821175	0
0	3097	3650.289056670646	3.718195051076
0	3113	3673.173352797982	0
0	3125	3678.499050372989	4.611551595932
0	3135	3693.182808196196	18.37763055935
0	3137	3696.186108831925	13.942079623954
0	3153	3703.178472263285	0
0	3157	3712.173930608804	6.523522887006
0	3178	3743.042318891618	0
0	3198	3759.163650859301	0
0	3207	3765.242276652763	4.888711279452
0	3243	3805.933087091129	0
0	3255	3822.760804071722	14.213432293202
0	3257	3824.244011479992	15.547048471264
0	3271	3852.361883182782	0
0	3293	3863.401995125007	0
0	3301	3872.801960929369	0
0	3325	3893.499057670018	19.889687517923
0	3336	3909.021084180683	0
0	3348	3943.05375968245	0
0	3378	3973.886880303073	0
0	3401	3997.72160545655	0
0	3411	4006.791716208753	0
0	3421	4021.292840229865	0
0	3428	4026.922451297777	0
0	3441	4048.33126665479	0
0	3453	4063.258209760623	0
0	3461	4080.507981527353	0
0	3466	4085.629679442742	0
0	3495	4116.063121482998	0
0	3521	4151.705141536076	0
0	3536	4174.280765765912	0
0	3547	4180.657380489399	0
0	3563	4198.027829138957	0
0	3571	4204.200315204859	0
0	3582	4212.537490932528	3.652882879716
0	3596	4230.632100675703	0
0	3613	4252.489991403496	0
0	3654	4300.985450203016	0
0	3686	4336.754393099234	0
0	3706	4356.31762896733	0
0	3731	4396.818234750549	0
0	3742	4405.755863223115	0.951795581323
0	3769	4428.891788973271	0
0	3777	4430.416356297774	0
0	3795	4450.269998174375	5.557774732579
0	3818	4466.368343410536	0
0	3823	4484.028186307019	0
0	3846	4509.40167863534	0
0	3860	4520.159137950749	9.782860242777
0	3897	4538.514707065826	0
0	3908	4556.381333483535	0
0	3913	4576.547691807259	0
0	3918	4578.288668557334	0
0	3936	4628.602564670103	0
0	3940	4631.832562063296	0.452265161274
0	3963	4646.529194086257	0
0	3968	4650.785144686374	0
0	3976	4659.724263303614	0
0	4001	4727.030520937871	0
0	4005	4731.119302206636	3.665708782475
0	4018	4762.605711712398	0
0	4023	4765.945379953187	0
0	4048	4822.995534212801	0
0	4053	4835.676749477163	0
0	4058	4845.952181789547	0
0	4073	4865.958837230231	0
0	4081	4885.598837020921	0
0	4093	4900.159675336227	0
0	4098	4911.169227560975	0
0	4102	4914.610980091614	3.407133369494
0	4133	4936.979495519716	0
0	4163	4955.531163825093	0
0	4181	4966.281744983299	0
0	4198	4998.168181994578	0
0	4203	5001.409016796732	0
0	4208	5017.03319053108	0
0	4217	5026.772011881221	9.391980521364
0	4242	5041.311558609833	0
0	4263	5054.867166262295	9.870457863001
0	4267	5059.157174300236	11.19620019679
0	4272	5061.098136146641	0.818881148697
0	4317	5099.899230216412	0
0	4331	5107.70953268112	0
0	4343	5116.888589397374	0
0	4373	5162.073724262721	0
0	4393	5176.784339296314	0
0	4419	5194.311534536351	0
0	4442	5214.430397822766	0
0	4468	5227.357657195735	0
0	4508	5278.683053055733	0
0	4537	5291.047637108566	6.713532822365
0	4548	5318.624384743227	0
0	4553	5330.75780117631	0
0	4574	5355.031518390583	0
0	4592	5367.264943960383	11.395950359672
0	4598	5369.802452826027	0
0	4608	5379.554278881954	0
0	4618	5394.597492095968	0
0	4626	5402.665967963752	0
0	4641	5409.296765161715	0
0	4653	5420.720657400604	0
0	4661	5426.531201766428	0
0	4676	5461.990642271616	0
0	4691	5479.886718320175	0
0	4696	5483.426577434185	0
0	4707	5491.197279864546	0.861414363229
0	4713	5496.580925992734	0
0	4737	5520.459829136929	0
0	4756	5546.035811660509	0
0	4765	5551.368199340966	0
0	4774	5560.099455798522	0
0	4793	5589.082300052022	0
0	4797	5599.801870043243	10.63733249907
0	4813	5616.651691826324	0
0	4821	5623.759701491539	0
0	4827	5629.853425592928	1.618525817632
0	4851	5653.241357855572	0
0	4863	5671.096846603586	0
0	4930	5728.744068270787	0
0	4947	5736.885862122083	0
0	4961	5749.236938909413	0
1	3	12.09995486651	0
1	18	33.997136915679	0
1	22	36.873769224343	2.809520485228
1	31	46.897739420317	0
1	54	68.138140790659	0
1	63	89.470740092905	0
1	71	92.938871368068	0
1	86	97.849358161713	0
1	107	119.225199159095	15.598066222308
1	123	141.206755405446	0
1	171	178.767062580349	0
1	198	223.848760499338	0
1	205	231.661596260922	3.268631000732
1	232	251.263295961332	12.714034975928
1	241	258.418753238836	0
1	248	268.286091781727	0
1	281	315.126982524954	0
1	305	337.977374468692	0
1	327	362.335535101557	0
1	342	375.595102845293	0
1	357	388.848569542572	0
1	372	398.01107724796	0.980057632364
1	384	405.985156849541	0
1	393	409.145629354648	0.932930481966
1	413	419.617232063028	0
1	418	424.380507194184	0
1	426	427.554199076533	0
1	435	436.102175145631	7.046718516787
1	482	474.54426567052	0
1	497	484.159203529467	1.44024995904
1	505	491.034296660609	6.178566700115
1	516	504.786089265882	0
1	526	523.495581363064	0
1	538	562.170824143016	0
1	546	569.398234898441	0
1	563	601.607689046737	0
1	568	609.57645322493	0
1	615	654.314145537121	0
1	629	663.051345727241	0
1	636	667.404855061087	2.471019339865
1	647	682.5434070025	0
1	657	696.507558797103	9.597441415775
1	662	697.578982400687	0.747476668029
1	722	764.566585931905	0
1	731	774.551247056448	0
1	742	785.833974550906	0.567017374701
1	747	791.369995790083	4.240173377604
1	763	820.17354675182	0
1	771	827.305751584789	0
1	794	862.598141239679	0
1	799	866.780946523173	0
1	807	880.592487011691	13.203881355044
1	830	899.249264213312	0
1	837	904.69733434279	1.20074475113
1	848	911.048801987345	0
1	860	922.333047240549	0
1	877	934.503527520731	0
1	896	951.187932097477	0
1	917	971.045736009317	18.919708321604
1	923	978.165305932335	0
1	928	984.993261790852	0
1	933	987.325524274968	0
1	953	1044.430523034594	0
1	962	1056.00462757436	5.865709892854
1	985	1082.525982461046	0
1	1006	1099.121490049762	14.240930349361
1	1008	1101.471327254192	9.170358769652
1	1017	1109.259692449097	0
1	1031	1117.857163721043	0
1	1038	1135.581259355925	0
1	1074	1188.564243437786	0
1	1085	1191.696926506875	0
1	1101	1204.027157016797	0
1	1108	1215.761263304147	0
1	1118	1217.762903558944	1.604797539596
1	1120	1219.030182547329	2.126641736472
1	1129	1228.792690239323	0
1	1148	1253.526256352237	0
1	1158	1269.969457226351	0
1	1163	1283.779555297546	0
1	1202	1319.034145576156	0
1	1211	1325.146698017972	0
1	1218	1336.42553011962	0
1	1248	1396.37199182153	0
1	1263	1433.065230654783	0
1	1273	1447.559813421913	8.352681261281
1	1283	1467.495469212736	0
1	1288	1476.021935145933	0
1	1309	1481.358894768488	0
1	1319	1486.733274122367	0
1	1325	1490.33966940996	3.41905374503
1	1333	1498.865859811615	0
1	1348	1517.676879643086	0
1	1371	1538.372536195833	0
1	1393	1563.175708857685	0
1	1406	1576.530046095256	0
1	1429	1597.975547870221	0
1	1443	1630.428995099985	0
1	1458	1658.518060217479	0
1	1471	1665.252052593805	0
1	1477	1675.780380090509	4.315062169889
1	1496	1693.38980925331	0
1	1503	1727.601574320376	0
1	1558	1775.128724827914	0
1	1568	1794.223818449126	0
1	1578	1800.271792731105	0
1	1585	1806.686474325814	2.364269684078
1	1608	1841.469512560472	0
1	1618	1848.878575534217	0
1	1646	1884.259896642077	0
1	1668	1918.145801583372	0
1	1673	1921.78732435016	0
1	1711	1961.170836131957	37.827000978255
1	1713	1962.226428537547	27.002398523924
1	1718	1964.180977268556	8.787824202413
1	1747	1990.477718805307	27.763484097172
1	1756	2004.703128876577	0
1	1776	2030.488628941572	0
1	1785	2038.251052425356	7.331203148086
1	1816	2069.864920539277	0
1	1843	2104.882436799007	0
1	1858	2125.108712092388	0
1	1865	2135.869180037182	8.058682305664
1	1878	2150.837740274858	0
1	1882	2154.721005399012	1.063685523213
1	1888	2156.317412540837	0
1	1898	2167.648299334275	0
1	1903	2179.139888748215	0
1	1948	2247.300960663046	0
1	1958	2258.736666063308	0
1	2031	2335.122341886182	0
1	2041	2350.934275354742	0
1	2050	2355.476097112423	2.022213068568
1	2056	2357.127796922252	0
1	2078	2387.335765507589	0
1	2085	2389.816347139844	1.237751540857
1	2093	2395.346069408322	0
1	2161	2492.714756393753	0
1	2176	2527.503261851885	0
1	2191	2578.704176504483	0
1	2223	2631.165393173437	0
1	2228	2644.851105168773	0
1	2238	2712.312387932696	0
1	2246	2717.187774030425	0
1	2250	2720.160163541452	0.460584385942
1	2273	2737.143172079578	6.177888580769
1	2281	2741.062818947584	1.705798038227
1	2293	2747.446129980084	7.757884037547
1	2295	2748.170865727616	4.489393563384
1	2322	2778.543452493449	0
1	2329	2779.16513628499	0
1	2341	2814.193066372187	0
1	2353	2832.0502273635	0
1	2389	2855.499452598515	0
1	2412	2879.388654686316	0
1	2433	2905.769558615869	0
1	2465	2931.741378036515	0
1	2488	2953.544021763469	0
1	2501	2971.912315745934	0
1	2508	2980.404921734872	0
1	2525	2997.47759241533	14.01035237511
1	2548	3032.073909841094	0
1	2561	3043.040226416428	0
1	2581	3058.726329354513	0
1	2586	3063.178384521954	0
1	2606	3112.269500974922	0
1	2611	3116.855286016452	0
1	2623	3140.540399640029	0
1	2641	3181.9807273142	0
1	2663	3207.557503280894	0
1	2695	3226.489507622478	16.329160357598
1	2719	3262.134201515439	0
1	2742	3278.016311003501	0
1	2763	3287.294768409935	0.743904812008
1	2797	3323.795606281623	0
1	2801	3324.188567947063	0.031855752387
1	2807	3327.840991448478	0
1	2817	3328.890478811081	0
1	2838	3355.091866712892	0
1	2842	3367.047670033867	1.763014435691
1	2889	3405.859087915925	0
1	2911	3415.573718432296	0.972838239126
1	2923	3424.995679926186	0
1	2943	3449.200133394755	0
1	2951	3467.581983187222	0
1	2961	3475.519826773453	7.542860120339
1	2992	3509.527823460997	0
1	2996	3511.136480802859	0.335621364311
1	3011	3521.946648683797	0
1	3015	3527.385858861244	4.108326523648
1	3033	3555.906539928048	0
1	3043	3573.319342381733	0
1	3048	3576.686989713885	0
1	3061	3581.930062635816	0
1	3078	3615.606062504649	0
1	3088	3641.4794465106	0
1	3148	3699.771528873558	0
1	3163	3715.690407416061	0
1	3168	3730.97937852182	0
1	3186	3746.810266655906	0
1	3192	3757.731533789517	0.519176398142
1	3213	3776.923838800608	0
1	3223	3789.171945818645	0
1	3228	3795.242327986987	0
1	3238	3801.216382455887	0
1	3246	3808.442826662491	0
1	3263	3837.964879432544	0
1	3277	3854.522801176911	0
1	3288	3858.759828916119	0
1	3314	3886.721912762793	0
1	3318	3887.999686575186	0.317280239884
1	3331	3903.204801377784	0
1	3358	3947.794612361742	0
1	3363	3953.733410432904	0
1	3371	3959.230910242003	0
1	3381	3976.621688972328	0
1	3418	4019.390813563049	0
1	3431	4030.678974011665	0
1	3479	4102.124729153023	0
1	3489	4111.23244250907	2.466279978416
1	3528	4165.540723324666	0
1	3532	4172.218541639617	1.116305035503
1	3550	4191.523319706005	15.385823438379
1	3552	4192.141398729294	15.732367820621
1	3558	4192.75995056078	0
1	3568	4204.150232912905	0
1	3578	4209.567523247952	0.411059672274
1	3588	4226.405342370082	0
1	3602	4233.914565250725	2.096692186844
1	3608	4242.438620295009	0
1	3619	4254.199518613699	0
1	3626	4255.494474792391	0
1	3633	4264.607191970994	0
1	3643	4288.918141373391	0
1	3651	4299.807117718865	0
1	3666	4313.311601763557	0
1	3673	4323.000316250044	0
1	3689	4338.313315013738	0
1	3714	4361.150219607182	0
1	3728	4396.037177837114	0
1	3753	4414.223822814913	0
1	3764	4425.571073745883	0
1	3774	4429.844878715979	0
1	3789	4444.457540430805	0
1	3799	4450.37529195444	0
1	3831	4490.871653316798	0
1	3843	4508.785979353318	0
1	3857	4514.970199206516	0
1	3869	4521.693425444528	0
1	3902	4551.893993961422	15.231457129291
1	3923	4607.499602348091	0
1	3944	4631.957258667095	0
1	3951	4638.821721497012	0
1	3998	4720.765718541382	0
1	4013	4745.597368654891	0
1	4028	4772.708409914248	0
1	4063	4853.025840159831	0
1	4078	4875.905374593437	0
1	4106	4915.955531830519	0
1	4113	4921.054554418944	0
1	4125	4932.967183352618	10.209541587527
1	4127	4935.721719677997	3.779658275126
1	4136	4936.989281057822	0
1	4143	4941.769861919332	0
1	4147	4943.384228938303	0.52968733855
1	4153	4947.215350015676	0
1	4158	4953.162024311129	0
1	4173	4963.982857799573	0
1	4193	4978.891786234503	0
1	4250	5045.329299585456	0
1	4283	5066.195891162978	0
1	4293	5079.790796875106	0
1	4298	5089.499441310421	0
1	4302	5091.148363871422	0.586181467685
1	4328	5107.202092483532	0
1	4337	5110.691307412259	0.56613877403
1	4349	5128.069573174529	0
1	4358	5139.382214316357	0
1	4367	5148.233546424898	3.206346726903
1	4376	5163.967003351714	0
1	4401	5179.943971612456	0
1	4407	5189.207855641776	4.011392862006
1	4436	5208.963214699178	0
1	4452	5221.938700806519	11.144744984148
1	4462	5226.994100471144	3.717731198146
1	4471	5234.351561461079	0
1	4478	5242.468562325092	0
1	4493	5266.890847943828	2.598656154299
1	4511	5280.874185773484	0
1	4527	5284.903003035767	1.963165383104
1	4531	5289.34906226148	5.772644064453
1	4533	5289.393662346895	5.501332411582
1	4558	5339.743180913357	0
1	4577	5355.413669785161	0
1	4586	5357.19365529288	0.7815186859
1	4611	5380.089769941784	0
1	4666	5428.669116665471	0
1	4671	5442.133859689805	0
1	4683	5475.171585074323	0
1	4687	5477.151711317489	1.485711470329
1	4701	5485.238191551122	0
1	4723	5508.393954716531	0
1	4728	5511.737812850596	0
1	4743	5523.763462640095	9.672405956692
1	4761	5550.77275877441	31.353928871208
1	4766	5552.276040475053	31.725634374796
1	4770	5557.151342254299	18.805577483511
1	4780	5564.149956809379	22.02280426476
1	4818	5622.162826313604	0
1	4838	5640.511184296333	0
1	4846	5648.011461253299	0
1	4873	5676.520204604243	0
1	4891	5684.502649081626	0
1	4898	5699.365868807041	0
1	4906	5711.324666642137	0
1	4927	5728.078319651098	0
1	4940	5731.279090575619	0
1	4971	5754.371152667146	0
2	6	12.16538306306	0
2	36	51.642303301326	0
2	43	58.720250999099	0
2	68	90.916241608998	0
2	80	96.683481299515	1.762721375427
2	94	101.090137007734	0
2	104	112.083834291986	0
2	116	131.754118024638	0
2	126	145.026716676941	0
2	132	153.139107093764	2.694843101627
2	138	157.242877273088	0
2	148	165.221987508314	2.918293401045
2	152	166.287256004148	2.210940923964
2	164	174.270126461756	0
2	178	186.457070405176	0
2	193	217.441443317927	0
2	201	227.189078311224	0
2	217	239.281114094282	0
2	224	248.215587422618	0
2	238	256.343018145125	0
2	273	303.523274169056	0
2	291	322.414595592218	0
2	315	352.305550412517	26.940111090645
2	337	368.157254029871	0
2	345	378.996419370635	0
2	350	382.734609355171	0
2	366	393.719113248111	0
2	389	407.266194228493	0
2	403	413.353216578138	0
2	423	425.474140356975	0
2	433	435.722891427546	2.998156438541
2	442	443.543701586159	2.671709088156
2	455	447.207018325739	3.647927803388
2	461	454.05414629617	0
2	478	472.206027450445	5.603933332573
2	483	477.012620904135	8.101002075126
2	485	477.157717856625	6.399181326264
2	491	481.383375246065	0
2	504	490.690803367701	0
2	523	522.406700669249	0
2	533	553.435652136108	0
2	553	586.787721229019	0
2	571	613.680815194783	0
2	580	618.27395072625	3.122801793304
2	582	619.313300090388	2.158689970906
2	588	634.932317339723	0
2	596	642.2618214858	0
2	612	653.552930138929	0
2	643	676.102312304354	20.211614750198
2	648	682.898932659932	10.963012036375
2	673	715.706328501307	0
2	683	735.71326661508	0
2	688	741.739941025474	0
2	697	747.294422796072	2.33050238476
2	702	750.002774964895	1.002786238699
2	708	757.398591293672	0
2	716	761.395049875131	0
2	725	768.07566411186	6.572627867947
2	758	815.571175290784	0
2	768	824.994259764466	0
2	783	853.252212219155	0
2	803	867.660379478278	8.038662016674
2	813	882.928286795691	0
2	844	910.359235599491	19.861898667382
2	853	916.816067956129	23.110018351504
2	861	922.422832196921	24.671881359919
2	863	923.548341593465	20.426959113971
2	881	937.526704261943	17.704128001389
2	885	941.266176364251	7.448354661271
2	890	950.725382630259	13.764782486921
2	907	954.496442183619	0
2	913	962.170716838632	3.567615149585
2	938	997.340673710819	0
2	943	1000.910792134749	0
2	968	1066.825341841728	0
2	978	1080.543481494592	11.411021805314
2	992	1091.249304132822	19.919951569978
2	997	1093.643344137674	15.205603802894
2	999	1094.333370959511	13.72526928458
2	1018	1109.69211237101	12.559650354508
2	1022	1110.755379352084	2.369483682396
2	1053	1161.072345659429	0
2	1061	1171.417218555724	0
2	1068	1183.886592989251	0
2	1086	1193.607475954414	2.404036730898
2	1098	1203.988420572954	0
2	1126	1228.734410263419	0
2	1166	1284.33143155636	0
2	1178	1293.814481870109	0
2	1197	1317.778145357412	0
2	1223	1346.20335562733	0
2	1228	1351.357149066188	0
2	1272	1444.9140713474	0
2	1316	1484.917651256566	0
2	1338	1502.711521254353	0
2	1343	1506.529683799279	0
2	1364	1532.674268095688	0
2	1376	1546.919387111617	0
2	1383	1550.383148554996	0
2	1388	1560.06155785744	0
2	1396	1568.144518896106	0
2	1403	1576.285873154697	0
2	1413	1583.184459175334	0
2	1418	1593.380431825497	0
2	1425	1597.96241178616	4.424335264094
2	1438	1627.498669632343	0
2	1446	1631.415785577672	0
2	1453	1641.512953182288	0
2	1466	1663.928603987441	0
2	1491	1689.999767639471	0
2	1516	1732.731770438061	0
2	1531	1754.397154948176	0
2	1537	1757.654923285991	2.910297601841
2	1548	1766.846487749448	0
2	1553	1769.172478310902	0
2	1561	1781.432424636577	0
2	1573	1798.592194025811	0
2	1596	1820.609350355335	0
2	1611	1842.359817488744	0
2	1628	1866.839713266008	0
2	1638	1877.838625950631	0
2	1643	1879.982737206797	0
2	1652	1886.032552093904	0.94746798183
2	1658	1893.831357569546	0
2	1662	1914.033407507823	6.915540892149
2	1679	1928.817637856856	0
2	1690	1941.000248660612	0
2	1697	1944.742207567865	0
2	1732	1967.214068409138	0
2	1739	1975.878275829936	0
2	1744	1977.733912213471	0
2	1753	2004.3314098447	0
2	1762	2006.572354206804	1.553388352268
2	1773	2027.810185186519	0
2	1791	2041.274420309473	0
2	1802	2049.126044303895	3.807408723194
2	1808	2051.56267697313	0
2	1813	2069.33074044226	0
2	1826	2075.427684731934	0
2	1869	2136.697932056749	0
2	1911	2181.148213905777	0
2	1923	2185.986543588762	0.90770167885
2	1943	2216.030492050901	0
2	1953	2253.323761470852	0
2	1964	2263.515989970369	0
2	1973	2270.183224418922	0
2	1988	2291.610330166481	0
2	1998	2300.995753501774	0
2	2003	2304.700395206642	0
2	2007	2306.135271713113	0.406367946077
2	2018	2319.150639709354	0
2	2023	2328.900568138652	0
2	2071	2383.333176238037	0
2	2081	2388.557773848881	0
2	2098	2410.439771230211	0
2	2103	2427.867899624774	0
2	2118	2442.392887182495	0
2	2128	2454.030838394265	0
2	2133	2456.449752238865	0
2	2141	2469.834056912701	0
2	2150	2480.039322528126	4.883158340206
2	2152	2481.684671062024	5.466202155393
2	2158	2486.089150870896	0
2	2168	2522.021853749475	0
2	2196	2579.640496034347	0
2	2213	2614.712316977063	0
2	2285	2743.319440233752	0
2	2308	2759.753367980552	0
2	2319	2774.361323833631	0
2	2338	2805.26767691846	0
2	2348	2822.159468150783	0
2	2356	2832.188525750829	0
2	2365	2836.654180531187	4.423011817827
2	2370	2838.103204555847	4.091907603984
2	2372	2838.742327891854	1.963855357667
2	2386	2852.460590851479	0
2	2396	2856.806180618157	0
2	2408	2875.557768100649	16.105187181567
2	2413	2881.031651162623	12.385236858776
2	2418	2883.540470301868	11.23106838975
2	2428	2898.740402410675	0
2	2449	2922.436302269659	0
2	2459	2927.955449186861	1.254890054566
2	2466	2933.088324349436	6.210266628769
2	2493	2959.456168707378	0
2	2511	2981.269502566895	0
2	2523	2995.163980204261	5.673784061834
2	2593	3079.13582237646	0
2	2603	3111.20004965527	0
2	2618	3129.795662996449	0
2	2626	3144.566616378093	0
2	2638	3178.246134767615	0
2	2669	3209.030013447661	0
2	2688	3221.482785069327	8.069624729418
2	2713	3255.454387582615	0
2	2726	3267.395917051626	0
2	2753	3282.257067461129	11.016129360276
2	2767	3303.784786888563	18.865884567823
2	2778	3313.850164422586	4.447983464427
2	2793	3323.231562006061	12.145371845605
2	2818	3332.619309438449	16.617826104661
2	2822	3344.494220508325	28.338136432923
2	2848	3374.898167042885	0
2	2861	3380.594875387415	0
2	2866	3396.553642499157	0
2	2878	3403.478582466073	6.078187229574
2	2880	3404.293738118884	4.563457021415
2	2896	3408.680807193458	0.061248129113
2	2915	3422.196439495675	12.099048812835
2	2928	3429.736910391197	0
2	2936	3447.2057784456	0
2	2974	3489.308562505056	0
2	3028	3544.821694462174	0
2	3068	3603.841709952898	0
2	3073	3613.28098500354	0
2	3083	3621.327721494989	0
2	3103	3653.239977274338	0
2	3108	3662.345964024424	0
2	3122	3675.643232397392	0
2	3132	3683.389518383807	0
2	3141	3698.80378608368	0
2	3171	3731.972540049213	0
2	3181	3745.85469840156	0
2	3201	3760.246806344524	0
2	3218	3784.014606487942	0
2	3233	3796.426643780717	0
2	3268	3850.383763370211	0
2	3278	3856.122529706345	1.930079555068
2	3296	3864.608636071543	0
2	3309	3882.172565551563	0
2	3324	3892.043620123975	0
2	3343	3936.002366562025	0
2	3351	3944.318837127839	0
2	3368	3956.732204684632	0
2	3386	3981.762730331408	0
2	3392	3985.543018663669	3.106142148477
2	3398	3992.353212274822	0
2	3408	4002.0421485316	0
2	3438	4047.603841996981	0
2	3445	4049.96642659536	0.288185513122
2	3456	4067.581052796622	0
2	3471	4095.126979004853	0
2	3491	4111.87541193325	14.240339034979
2	3501	4119.704799675644	14.388019031353
2	3503	4120.425587417073	12.471590411636
2	3507	4126.55126794138	7.979545776062
2	3513	4150.03832930671	0
2	3518	4151.572835808479	0
2	3591	4227.919826984201	0
2	3616	4252.595175520039	0
2	3638	4279.095585027196	0
2	3646	4291.654949561878	0
2	3661	4304.440399871685	0
2	3678	4326.909144531785	0
2	3683	4328.467825273067	0
2	3696	4344.721951645514	0
2	3703	4353.308717108283	0
2	3711	4359.830270204321	0
2	3723	4380.690050184631	0
2	3736	4403.164165783867	0
2	3748	4408.738901011369	0
2	3758	4416.804077956084	0
2	3783	4435.40682907036	18.441922530707
2	3785	4438.773600916847	8.039952263462
2	3804	4454.089396595437	0
2	3813	4462.944336347093	0
2	3828	4490.746985194075	0
2	3838	4497.170734975361	0
2	3852	4513.196660153246	0
2	3866	4520.98488098584	0
2	3873	4522.657143553792	0.760408844997
2	3880	4528.512439426918	4.566466728137
2	3886	4533.269292831606	0
2	3893	4538.320720673058	1.757074195841
2	3926	4615.642380426866	0
2	3932	4627.035405109803	10.142858590455
2	3957	4643.652130193732	3.547202149745
2	3973	4657.501935296141	0
2	3983	4683.123795660528	0
2	3988	4685.073315517888	0
2	3992	4692.757254893794	4.645190194338
2	4033	4803.499036766059	0
2	4038	4813.795785934075	0
2	4043	4819.855656163614	0
2	4066	4853.254469839214	0
2	4088	4889.852470199775	0
2	4119	4930.688070848055	0
2	4166	4957.76026309804	0
2	4176	4965.809076977878	0
2	4188	4970.111502359862	0
2	4214	5022.140238592846	0
2	4221	5026.945435944131	0
2	4236	5038.447278932505	10.996125989529
2	4238	5041.148745879092	10.475970445164
2	4243	5043.464833634377	12.417534762199
2	4259	5048.647382304961	10.689037794078
2	4261	5049.751094531782	2.029202694056
2	4278	5063.374369255254	0
2	4288	5071.410319528703	0
2	4308	5095.706540527554	0
2	4320	5102.439696951868	5.556319688653
2	4322	5103.100629765778	3.573628292319
2	4346	5125.474665888266	0
2	4364	5145.38135209766	0
2	4383	5173.72769651279	0
2	4388	5174.002785518652	0
2	4396	5177.239094742992	0
2	4411	5189.692957045292	0
2	4416	5192.170811120208	0
2	4427	5198.827785845913	3.434681356492
2	4432	5207.044180726818	2.911991797818
2	4449	5220.91015603516	0
2	4459	5224.878942691691	0
2	4481	5253.103688690974	0
2	4486	5261.175697750404	0
2	4495	5268.347042457532	4.499430051169
2	4501	5270.987988980128	0
2	4514	5282.822035079642	0
2	4543	5299.600236969691	0
2	4561	5340.440413530766	0
2	4570	5354.281426684802	9.155365538806
2	4581	5356.070257036276	8.518848722817
2	4601	5373.624552651061	0
2	4623	5401.874289028302	0
2	4632	5406.046016589058	2.185863066418
2	4638	5407.752488721663	0
2	4648	5416.306652377707	0
2	4658	5425.969367038373	0
2	4718	5506.048114147623	0
2	4750	5540.912148370427	0
2	4777	5561.916216249626	0
2	4788	5583.841894184449	0
2	4801	5600.013993405242	0
2	4808	5605.490881308674	0
2	4831	5633.076974710241	0
2	4843	5647.06479152918	0
2	4854	5663.406922679362	0
2	4868	5673.003936807897	0
2	4876	5676.741511837265	0
2	4882	5683.489640141529	4.488093946178
2	4887	5684.061539946692	0.156260292002
2	4903	5711.172331804705	0
2	4913	5721.978676510993	0
2	4923	5727.071319178542	3.755447842032
2	4941	5732.432239673316	7.743292496168
2	4948	5738.87111702521	12.130207983804
2	4952	5742.27091521179	11.421182752061
2	4958	5747.760037182968	0
2	4968	5750.261212247766	0
2	4975	5760.503743922482	2.589812499637
2	4983	5799.027787440243	0
2	4993	5818.262738965162	15.393412420011
2	4996	5822.615716765753	15.868464441274
2	4998	5823.605385498244	9.139910630679
3	8	13.498560392494	1.398605525984
3	10	16.032860271888	3.867477208828
3	15	26.876986535743	2.804309388888
3	23	36.873769224343	2.876632308664
3	25	39.500510073047	5.436261333932
3	33	50.903554874192	4.005815453875
3	38	54.275475541536	2.63317224021
3	40	55.903592629143	13.335219776355
3	45	63.660332206317	4.940081207218
3	56	68.238353665583	2.223455258834
3	58	68.521001656198	2.380177645311
3	60	70.213446678413	2.075305887754
3	65	89.818596769821	0.347856676916
3	79	94.925644083487	1.986772715419
3	81	96.683481299515	5.767239690517
3	83	97.60863832179	3.868937408031
3	91	100.366672478898	5.44591255481
3	96	102.397031778909	2.066601819047
3	101	105.406924171725	4.316787163991
3	106	114.052239016198	1.968404724212
3	108	119.225199159095	21.375840997382
3	110	120.035193144377	16.40806020759
3	118	134.030709707236	5.592719481817
3	120	136.949817721063	5.195699696425
3	128	146.553429476156	5.34667407071
3	133	153.139107093764	8.112390416823
3	135	153.310260214627	2.86599622249
3	149	165.221987508314	7.979110235226
3	151	165.282281069456	4.481392280692
3	153	166.287256004148	3.983561896879
3	158	169.577136424548	5.500821344364
3	166	174.810715314829	0.540588853073
3	168	177.005556120507	9.467453240506
3	173	179.98691776327	6.674862101071
3	175	183.801399275966	5.034336695617
3	180	188.856651413632	2.399581008456
3	185	206.376955041423	3.11713751139
3	190	214.743128743817	3.651274794747
3	195	217.575614890039	0.134171572112
3	206	231.661596260922	7.812835761584
3	208	231.859664097919	4.670585786695
3	219	242.932407626985	3.651293532703
3	221	245.24977902699	8.842226662177
3	229	249.607229706008	1.39164228339
3	231	250.038974504386	1.162089994964
3	233	251.263295961332	22.870330701142
3	235	254.519472613739	15.970211628335
3	243	259.64351428033	3.300496135205
3	245	259.831895881962	1.413142643126
3	253	277.018583038698	8.732491256971
3	258	278.499154110878	4.73566435639
3	260	285.066132102659	6.911531720978
3	268	298.161212034361	3.614044194878
3	270	302.383010109914	4.519744282739
3	278	307.32007162713	1.812582790186
3	286	316.514332943229	12.991058774173
3	288	316.550843146309	0.042633177515
3	302	328.38920309709	13.262220572136
3	307	338.615797522499	15.320238738716
3	309	339.353821329217	1.376446860525
3	311	344.405956658898	17.53265602142
3	316	352.305550412517	29.890954820299
3	321	358.37827844944	33.012839127568
3	329	365.506628555917	3.17109345436
3	334	367.101143064007	19.314388351692
3	339	369.408653623188	1.251399593317
3	347	381.269836662949	2.273417292314
3	352	384.041161228722	8.446058383429
3	354	385.314126468402	2.579517113231
3	359	390.11824044398	36.07006369019
3	361	390.796706677237	29.049585818511
3	363	391.128206627422	24.727887292061
3	371	397.21248916783	3.493375919719
3	373	398.01107724796	9.162507705388
3	375	398.903840424201	1.872820808605
3	386	406.321236407674	5.190081617289
3	394	409.145629354648	3.160472505107
3	396	409.175961343433	5.501205184342
3	398	410.573548557508	3.307354329015
3	400	412.014274557228	3.801575684546
3	405	413.605822963502	0.252606385364
3	410	415.656067605451	0.691286939074
3	415	423.476326949521	3.859094886493
3	420	424.655815022559	0.275307828375
3	434	435.722891427546	10.248751070571
3	436	436.102175145631	8.547976069098
3	438	438.940426888933	9.884970260089
3	443	443.543701586159	10.818966597154
3	454	446.950611841609	1.684982236625
3	456	447.207018325739	6.335025827736
3	458	450.017599060097	6.458508537746
3	463	457.502631386992	10.652812210027
3	468	462.888226677367	4.173643656397
3	479	472.206027450445	18.151881154275
3	484	477.012620904135	10.410526786263
3	486	477.157717856625	8.246099027616
3	488	479.363254400346	8.604717869985
3	496	482.820184795176	1.436809549111
3	498	484.159203529467	9.614937858947
3	506	491.034296660609	8.315343090182
3	511	497.196660491472	12.340930530978
3	513	497.74490376684	4.954207690417
3	518	507.621654322678	2.835565056796
3	520	509.645613041064	18.954809673363
3	528	523.635607102175	0.140025739111
3	530	527.915363924208	5.508663254959
3	535	553.769540591249	0.333888455141
3	543	568.38055121893	6.209727075914
3	548	571.614308444165	2.216073545724
3	550	578.602048563124	10.575581774982
3	555	593.560213112655	6.772491883636
3	560	600.384759533933	0.957385939975
3	565	601.824668345931	0.216979299194
3	579	617.563346886833	7.986893661903
3	581	618.27395072625	4.593135531467
3	583	619.313300090388	4.162151157442
3	585	619.872261676011	2.717651556529
3	590	635.962001466118	1.029684126395
3	601	643.520564167876	5.193347947696
3	603	643.706591325172	1.444769839372
3	617	655.576591397309	1.262445860188
3	622	657.707724383316	15.344297060487
3	624	659.246585061537	11.835942863749
3	626	661.708213798738	10.272950884337
3	637	667.404855061087	4.353509333846
3	642	675.103739107589	10.169903386367
3	644	676.102312304354	22.549382165425
3	649	682.898932659932	27.008235105776
3	651	683.671342980015	11.735422356458
3	653	686.312080056249	19.006106599368
3	658	696.507558797103	13.964151794603
3	663	697.578982400687	10.668865019359
3	668	702.193371793663	5.361866061005
3	670	712.154886764785	10.109304874855
3	678	718.333896447617	1.470169616838
3	680	720.780786857993	5.074458356686
3	685	738.498943522598	2.785676907518
3	693	744.144343332914	1.631856011073
3	698	747.294422796072	5.554481770598
3	703	750.002774964895	5.038854553583
3	705	752.627466695836	3.62747796964
3	710	759.115783352883	1.717192059211
3	724	765.63260921099	1.066023279085
3	726	768.07566411186	6.680614236729
3	728	768.311450872451	7.199057267852
3	736	777.417320466263	0.278958025794
3	738	779.019467619133	17.51643137522
3	743	785.833974550906	11.282727494458
3	748	791.369995790083	6.103038613878
3	753	798.10403961957	10.974217207091
3	755	798.262808421512	5.63474640112
3	760	818.001955781021	2.430780490237
3	765	821.289508529065	1.115961777245
3	773	827.495044810017	0.189293225228
3	775	833.774689830093	8.780430065627
3	780	849.054195582741	0.214081976571
3	791	860.363634488978	4.47140896843
3	796	863.470319691752	0.872178452073
3	804	867.660379478278	14.408167259123
3	806	872.876838677424	13.25512121582
3	808	880.592487011691	13.811540488518
3	810	882.682638609742	15.294032953095
3	821	890.568996941304	1.726287588751
3	838	904.69733434279	5.448070129478
3	840	908.399881603077	4.903292011417
3	845	910.359235599491	27.4309488038
3	850	912.156652472212	1.107850484867
3	852	914.277213472532	4.142914759978
3	854	916.816067956129	26.31873102402
3	862	922.422832196921	28.716782592296
3	864	923.548341593465	25.797390756463
3	869	925.547745988723	3.214698748174
3	871	926.747616876307	2.939977917736
3	882	937.526704261943	34.405321782449
3	884	940.720154495597	6.216626974866
3	886	941.266176364251	21.443600103697
3	891	950.725382630259	16.907560927279
3	893	950.893166296533	1.188544374712
3	898	951.454186025333	14.493585881995
3	909	955.867962498118	1.663057129835
3	914	962.170716838632	7.674274655013
3	916	964.189752884495	5.586651195448
3	918	971.045736009317	19.85780391184
3	920	971.242430861537	19.116403173824
3	925	979.841941992834	1.676636060499
3	930	985.645783850037	0.652522059185
3	935	995.385508576385	8.059984301417
3	940	999.572185345129	2.23151163431
3	945	1011.195544405514	10.284752270765
3	950	1032.473340770438	0.606725286345
3	961	1055.759095853938	5.863784955298
3	963	1056.00462757436	11.574104539766
3	965	1060.30426450157	10.165346820064
3	979	1080.543481494592	13.718139652864
3	993	1091.249304132822	22.116844443544
3	998	1093.643344137674	22.31399157483
3	1000	1094.333370959511	15.895630624731
3	1005	1097.639242075908	7.601249713411
3	1007	1099.121490049762	16.595507588716
3	1009	1101.471327254192	16.590767553791
3	1011	1104.457338520148	12.156370035608
3	1019	1109.69211237101	29.084010696079
3	1021	1109.861120931371	0.601428482274
3	1023	1110.755379352084	13.622917335582
3	1025	1113.474628818174	5.088733148486
3	1033	1123.291393685442	5.434229964399
3	1035	1123.457483172443	5.927903872133
3	1040	1135.725203537581	0.143944181656
3	1045	1146.259493394059	0.395712575769
3	1050	1152.025245634557	1.659606606318
3	1055	1161.520959632723	0.448613973294
3	1063	1171.930188505946	8.089561251739
3	1065	1181.03769766557	9.620479109846
3	1076	1188.615151890943	0.050908453157
3	1087	1193.607475954414	9.720882965163
3	1089	1194.024489882251	6.571607530482
3	1091	1199.276078302527	8.072639079011
3	1093	1199.819741151504	8.122814644629
3	1095	1200.078447249172	9.572577279477
3	1103	1206.563017024058	2.535860007261
3	1105	1206.787658139436	2.799237566482
3	1119	1217.762903558944	2.001640254797
3	1121	1219.030182547329	2.872076527981
3	1123	1222.319192103513	5.415651292656
3	1131	1233.257811604726	4.465121365403
3	1133	1234.661572826606	5.927162563187
3	1135	1236.203321709486	20.415367338848
3	1143	1247.393023846891	2.789685850317
3	1145	1247.732481509827	0.622994004662
3	1150	1253.604728775744	0.078472423507
3	1155	1261.921562934466	3.846261309298
3	1160	1270.060740984808	0.091283758457
3	1171	1287.475588233585	3.144156677225
3	1173	1289.184844854424	5.405289556878
3	1175	1292.123032349214	5.325259305237
3	1183	1297.12840864289	3.313926772781
3	1191	1306.5133048441	9.632104746827
3	1199	1318.718817216347	18.53001595017
3	1204	1321.161094319863	18.061356211579
3	1206	1321.297759949161	3.519614591749
3	1208	1324.157945599399	5.123800023243
3	1213	1325.244146609696	0.097448591724
3	1215	1331.295750859424	16.683026082985
3	1220	1341.03672480735	4.61119468773
3	1225	1346.215750754509	0.012395127179
3	1230	1356.737759246402	5.380610180214
3	1235	1365.963028945496	2.792722472061
3	1240	1390.202195924142	0.004743235329
3	1245	1393.748732759093	1.354371023616
3	1250	1400.648246726296	4.276254904766
3	1255	1403.45204095741	2.172225382595
3	1260	1427.347348866905	6.611800736924
3	1274	1447.559813421913	14.49458276713
3	1276	1447.769737819662	2.855666472262
3	1278	1451.603230576376	7.425939165574
3	1280	1466.835696302838	27.628564142206
3	1285	1467.86864383235	0.373174619614
3	1296	1478.508286021748	2.486350875815
3	1298	1479.381293582424	2.029379932944
3	1303	1480.995265959674	3.116456278288
3	1311	1481.493557900539	0.134663132051
3	1313	1481.553254005147	1.505025557028
3	1324	1490.197486641454	9.023383053879
3	1326	1490.33966940996	3.606395287593
3	1328	1491.09261533944	6.174964082874
3	1330	1492.583388785575	5.662773120645
3	1335	1499.638157903449	0.772298091834
3	1340	1504.208063180063	1.49654192571
3	1345	1511.33124250541	4.801558706131
3	1356	1530.997942490994	4.24971610882
3	1361	1532.407958402516	14.73107875943
3	1366	1533.43903890815	0.764770812462
3	1368	1537.550207183827	7.143744604
3	1373	1544.557472613844	6.184936418011
3	1378	1547.899608353318	0.980221241701
3	1380	1548.420123924135	16.883805512426
3	1385	1552.169492676977	1.786344121981
3	1390	1560.155399537735	0.093841680295
3	1398	1572.652782732787	9.477073875102
3	1400	1575.654685454169	7.510166558063
3	1408	1576.695355378435	0.165309283179
3	1410	1578.282974488049	1.997101333352
3	1415	1590.439711649025	7.255252473691
3	1426	1597.96241178616	4.581979960663
3	1431	1598.080145784819	4.542069262753
3	1433	1602.209263474096	7.161471968627
3	1435	1602.382245564418	4.406697694197
3	1440	1629.292872873981	1.794203241638
3	1448	1632.703350378269	2.274355278284
3	1450	1633.791244912378	2.375459334706
3	1455	1648.191810897585	6.678857715297
3	1460	1662.560858104392	4.042797886913
3	1468	1664.543542021009	0.627690502691
3	1473	1669.279705709832	5.351101722391
3	1478	1675.780380090509	10.528327496704
3	1480	1679.848106040748	8.382788120128
3	1485	1683.143135745813	2.397214036282
3	1493	1690.152074651461	2.946607139393
3	1498	1694.974132512152	4.974364872681
3	1500	1696.764143905169	3.374334651859
3	1505	1728.349729531605	0.748155211229
3	1510	1729.240515399394	0.474455352317
3	1518	1737.88435839561	5.873844025311
3	1520	1740.72428861181	7.992518173749
3	1525	1747.275900618527	1.051153261965
3	1536	1755.63533991199	1.339768290858
3	1538	1757.654923285991	3.257768337815
3	1540	1758.917090490003	4.172464805853
3	1545	1763.326449733646	2.21120166464
3	1550	1766.907340010378	0.06085226093
3	1555	1774.345639293963	5.173160983061
3	1563	1782.762132690669	1.329708054092
3	1565	1785.189300124067	10.060575296153
3	1570	1796.412449123691	2.188630674565
3	1575	1799.028407280654	0.436213254843
3	1586	1806.686474325814	6.414681594709
3	1588	1808.402874966131	4.080670324395
3	1590	1813.642846020927	7.523562180634
3	1598	1820.691508265053	0.082157909718
3	1600	1822.475770136375	1.892296644513
3	1605	1834.752974658318	1.406011227293
3	1613	1845.13014642829	3.660633867818
3	1615	1847.852180940195	5.492363451451
3	1623	1855.46659868675	6.588023152533
3	1625	1858.807397770032	8.159792458688
3	1633	1872.66524305872	2.13097364366
3	1635	1874.222670726263	7.382957460255
3	1640	1878.21271549305	0.374089542419
3	1651	1885.738990669378	1.479094027301
3	1653	1886.032552093904	6.049814887107
3	1655	1891.590213293386	6.505129181312
3	1663	1914.033407507823	20.202049938277
3	1665	1915.543362115781	8.425495500107
3	1670	1921.509688041878	3.363886458506
3	1681	1930.256328888824	1.438691031968
3	1692	1941.60724569298	3.365729586694
3	1694	1944.571720152934	3.571471492322
3	1702	1947.175856785711	1.959324306992
3	1704	1949.131338899624	4.389131331759
3	1712	1961.170836131957	39.383511781797
3	1714	1962.226428537547	38.882593383845
3	1719	1964.180977268556	28.956947254933
3	1724	1964.793211235025	7.185895653135
3	1726	1964.82449466282	0.142757456711
3	1734	1969.847320944594	2.633252535456
3	1736	1971.098718967324	4.200247148367
3	1741	1976.259433760694	0.381157930758
3	1746	1982.632099653418	4.898187439947
3	1748	1990.477718805307	35.084565739164
3	1750	2000.950003146184	38.235768438049
3	1761	2005.296446389619	0.593317513042
3	1763	2006.572354206804	2.240944362104
3	1768	2013.670199731221	0.32585970267
3	1770	2018.676675030266	13.65770917573
3	1784	2033.564157769534	0.054757931664
3	1786	2038.251052425356	7.762423483784
3	1788	2040.102724441902	12.292539255383
3	1793	2043.141214006296	12.221364729026
3	1801	2048.327244278888	3.777065463295
3	1803	2049.126044303895	7.851623994422
3	1805	2049.776383277912	4.457747697211
3	1810	2055.733822817994	4.171145844864
3	1818	2070.592355143278	1.261614701018
3	1820	2071.656820475255	1.791899935978
3	1828	2075.623454419489	0.195769687555
3	1833	2079.315705534706	6.115328927837
3	1835	2080.459032165026	1.358732389829
3	1840	2090.591752413145	6.882926094802
3	1845	2107.098278325893	2.215841526886
3	1850	2112.107972420334	0.432536391637
3	1855	2120.316457656455	6.691281218556
3	1866	2135.869180037182	10.760467944794
3	1871	2137.607044789053	0.909112732304
3	1873	2138.392830335903	10.582332604385
3	1875	2141.576939666179	14.048286877779
3	1883	2154.721005399012	3.883265124154
3	1885	2155.639198449808	1.981878574009
3	1893	2159.714727991281	0.187267533958
3	1895	2160.023435155434	3.706022614597
3	1900	2167.976702837657	0.328403503382
3	1905	2180.873353148469	1.733464400254
3	1919	2184.228945474492	3.28656208932
3	1924	2185.986543588762	4.838329682985
3	1926	2187.28299186951	5.222842896395
3	1928	2189.730174613711	5.899381241417
3	1930	2194.422371480976	9.343529571064
3	1938	2212.564982791645	5.27885175278
3	1940	2212.908832259095	1.810836809328
3	1945	2221.558429917828	5.527937866927
3	1950	2252.877485408166	5.57652474512
3	1955	2255.596095789102	2.27233431825
3	1966	2264.083489365831	0.567499395462
3	1968	2264.312520891885	2.178091490019
3	1970	2267.594853633481	8.858187570173
3	1975	2275.913919462531	5.730695043609
3	1980	2278.73460044845	1.50052876346
3	1985	2284.203141684136	3.828936083589
3	1993	2292.613650747802	1.003320581321
3	1995	2296.806783466205	4.875590210482
3	2000	2301.600809894704	0.60505639293
3	2008	2306.135271713113	1.434876506471
3	2010	2311.195893946234	5.466990179198
3	2015	2313.971231723001	1.719430221735
3	2020	2321.366577983667	2.215938274313
3	2025	2328.916557224412	0.01598908576
3	2036	2337.601530280663	2.479188394481
3	2038	2339.587127466941	4.807182838752
3	2043	2351.4261544801	14.520380528452
3	2051	2355.476097112423	4.541821757681
3	2053	2356.311791799389	2.857907755534
3	2058	2358.405116205049	4.17692772865
3	2060	2360.541100111189	3.413303188937
3	2065	2367.935210678089	5.989120143867
3	2073	2383.438374408168	2.73603724375
3	2075	2386.741570806353	3.408394568316
3	2086	2389.816347139844	2.480581632255
3	2088	2391.761166541327	3.18257094234
3	2090	2393.770162469143	5.212388620262
3	2095	2397.720269511316	2.374200102994
3	2100	2419.830749076441	9.39097784623
3	2105	2429.383130297505	1.515230672731
3	2110	2434.124263929723	0.301363787017
3	2115	2439.170669847372	3.08965810371
3	2123	2444.830808863775	2.43792168128
3	2125	2447.626781556853	2.947329331562
3	2130	2454.070287444808	0.039449050543
3	2135	2457.140855579395	0.69110334053
3	2143	2471.731426429731	6.648091533102
3	2151	2480.039322528126	10.205265615425
3	2153	2481.684671062024	6.528506874104
3	2155	2485.516869744328	9.298400837697
3	2163	2496.36770900874	3.652952614987
3	2165	2504.98323059719	18.894079726294
3	2170	2522.195773570023	0.173919820548
3	2178	2527.821978706026	1.003042037187
3	2180	2532.863075720108	5.359813868223
3	2185	2557.102341815791	5.498158908882
3	2193	2579.597860902523	0.89368439804
3	2198	2581.095665089755	2.765685034495
3	2200	2582.413728532102	2.773232497755
3	2205	2592.818059091241	1.694153643976
3	2210	2600.008709359894	3.116469649527
3	2215	2623.349937026429	8.637620049366
3	2220	2625.089576534458	0.707630529165
3	2225	2634.703162977899	3.537769804462
3	2230	2651.388818505087	6.537713336314
3	2235	2704.717339215882	7.771727067865
3	2243	2714.316408796338	2.004020863642
3	2251	2720.160163541452	2.972389511027
3	2256	2721.291593042442	7.838198744922
3	2270	2736.623074669547	15.865772782484
3	2272	2736.944227518871	11.248968155839
3	2274	2737.143172079578	17.443592924068
3	2282	2741.062818947584	10.097535448775
3	2290	2744.526117832547	14.666899635256
3	2292	2744.709532797935	14.17204886312
3	2294	2747.446129980084	8.089109070727
3	2296	2748.170865727616	8.482619785079
3	2301	2749.034635377308	5.353163213076
3	2303	2749.86310677681	6.543666543058
3	2305	2752.729138585427	4.296514278449
3	2313	2766.062857684066	6.309489703514
3	2324	2778.615128565505	4.253804731874
3	2326	2778.880945661184	0.337493167735
3	2331	2780.015895988539	16.559574894085
3	2333	2782.388124201005	3.222987916015
3	2335	2785.718173507422	19.208046116351
3	2343	2815.392058907524	10.124381989064
3	2345	2820.435080107834	6.242013735647
3	2350	2828.033003523977	5.873535373194
3	2358	2832.213363137565	0.163135774065
3	2366	2836.654180531187	4.465654780358
3	2371	2838.103204555847	5.872035842487
3	2373	2838.742327891854	4.731030939991
3	2378	2838.985863540785	2.207391006598
3	2383	2844.255365165781	5.275530453067
3	2391	2855.741979936621	3.281389085142
3	2393	2856.488891106548	0.989438508033
3	2398	2858.51362830127	14.451081039172
3	2409	2875.557768100649	18.751587482492
3	2414	2881.031651162623	21.579070243541
3	2419	2883.540470301868	14.894055998021
3	2421	2885.102097326757	12.792695414639
3	2423	2885.529253739093	2.911878919753
3	2425	2891.257403519262	11.868748832946
3	2430	2898.749624597577	0.009222186902
3	2438	2911.771683833159	6.00212521729
3	2443	2916.440114559309	5.510245030339
3	2460	2927.955449186861	5.519146917202
3	2462	2928.530830493522	15.746205636855
3	2467	2933.088324349436	6.387765217141
3	2469	2935.443944029733	3.702565993218
3	2471	2935.65247130024	8.774413579573
3	2473	2938.369082896829	19.642168686132
3	2475	2940.749372321091	15.511769347392
3	2480	2945.431573420365	0.089929916133
3	2485	2945.926559162425	0.414630882991
3	2490	2956.386307406056	2.842285642587
3	2495	2962.318625563609	2.862456856231
3	2503	2974.170439818335	10.926379011713
3	2505	2976.944147689067	5.031831943133
3	2522	2993.944809390012	1.922379947635
3	2524	2995.163980204261	13.894477637366
3	2526	2997.47759241533	17.072670680458
3	2528	3000.014409060072	10.524212917645
3	2533	3009.157468929493	3.766426884596
3	2538	3013.188046512785	2.566715846632
3	2543	3016.724195914373	0.734949236422
3	2545	3023.522891405947	40.055651365727
3	2553	3033.788303545717	0.935192599768
3	2555	3040.0041949368	7.930285095706
3	2563	3043.524029615824	2.045484921526
3	2568	3052.654169708144	6.861726205595
3	2570	3052.814286499788	9.77406008336
3	2578	3054.939044429954	1.146832385515
3	2583	3059.214165241152	0.487835886639
3	2588	3068.114230229781	4.935845707827
3	2590	3070.349131918308	15.592584005121
3	2595	3080.093002083493	0.957179707033
3	2600	3093.476583490259	3.647804510733
3	2608	3115.291354908048	3.021853933126
3	2613	3119.83452278434	2.979236767888
3	2615	3123.636465011774	12.436415356504
3	2620	3131.146433012541	1.350770016092
3	2628	3148.950818104005	4.384201725912
3	2630	3154.195665604461	13.655265964432
3	2635	3171.060026627494	3.742963944778
3	2643	3182.1260244252	3.879889657585
3	2654	3186.03185460622	3.622801362532
3	2656	3187.757976205691	5.092117552012
3	2658	3189.295369170924	3.504243972239
3	2660	3191.145341549631	9.164614235431
3	2674	3211.30426306034	2.364485938775
3	2682	3217.440196488742	3.09413176604
3	2687	3218.5123491866	0.684937863791
3	2689	3221.482785069327	12.452771621666
3	2694	3223.83650416378	1.984917577514
3	2696	3226.489507622478	18.932004341584
3	2698	3228.127879148943	14.714718809034
3	2700	3232.809050076789	22.648702811909
3	2708	3247.474220002782	5.664900152611
3	2710	3250.573242405462	6.595802347004
3	2721	3262.580400115363	7.126012532748
3	2723	3263.98512501268	1.850923497241
3	2728	3268.881312072693	11.85361854913
3	2736	3271.887382418314	2.185817346001
3	2744	3279.320335617867	5.315944414684
3	2749	3281.516485605409	0.272913342867
3	2754	3282.257067461129	14.861150409503
3	2756	3282.271156725607	0.646253289162
3	2764	3287.294768409935	9.278457406434
3	2766	3296.14461068906	9.593747091133
3	2768	3303.784786888563	32.54384878771
3	2779	3313.850164422586	28.931262101846
3	2790	3317.889754821343	11.750116401483
3	2792	3318.837307038547	2.776619860288
3	2794	3323.231562006061	13.829381047902
3	2802	3324.188567947063	0.39296166544
3	2804	3326.413033995785	2.256321801109
3	2812	3327.986435365787	0.145443917309
3	2814	3328.775837582288	0.879103710144
3	2819	3332.619309438449	21.533119277993
3	2821	3337.652919856239	8.762441045158
3	2823	3344.494220508325	28.492737174537
3	2825	3349.37786751363	33.221783438228
3	2833	3352.203551255029	1.878965823405
3	2835	3352.431586766605	1.237866340641
3	2843	3367.047670033867	11.955803320975
3	2845	3369.106039346788	3.821383748612
3	2850	3375.626726210802	0.728559167917
3	2858	3379.899685060481	3.622741936808
3	2863	3389.514379320804	8.919503933389
3	2877	3400.332795940415	20.909063599762
3	2879	3403.478582466073	6.924939966916
3	2881	3404.293738118884	6.893342882385
3	2886	3405.335895924181	8.389993950345
3	2897	3408.680807193458	8.950526095989
3	2908	3414.669624479079	9.372525824205
3	2910	3415.457717237603	7.286905454587
3	2912	3415.573718432296	9.714630516371
3	2914	3421.582064168917	6.981183975747
3	2916	3422.196439495675	13.57688043133
3	2918	3423.525029180754	13.183142933148
3	2920	3423.991352568133	13.893961885293
3	2925	3427.050503601378	2.054823675192
3	2930	3435.200531195854	5.463620804657
3	2938	3447.485724346376	1.547963229468
3	2940	3448.113700605289	0.907922159689
3	2945	3458.764178163013	9.564044768258
3	2962	3475.519826773453	7.937843586231
3	2964	3477.934418584698	11.475352386506
3	2966	3480.35772355378	8.531067969576
3	2968	3481.051824252538	13.074857599424
3	2976	3489.803772215044	14.464105278593
3	2978	3490.862062157072	1.553499652016
3	2983	3502.607774980389	13.88871765943
3	2997	3511.136480802859	1.608657341862
3	3002	3514.913412037855	4.112552599307
3	3004	3516.611194378886	20.534655476497
3	3006	3519.138041547272	16.392110388346
3	3008	3520.785114291068	17.385443466611
3	3016	3527.385858861244	5.439210177447
3	3018	3532.327998964166	21.157279547329
3	3023	3537.78224904587	14.504716708274
3	3025	3541.292236684401	3.882034500629
3	3030	3553.068739947437	8.247045485263
3	3038	3559.047730375931	3.141190447883
3	3040	3560.863581943678	3.003103023936
3	3045	3573.678357276897	0.359014895164
3	3053	3578.373376387008	1.686386673123
3	3055	3580.065259101968	2.249071578352
3	3063	3582.694073312323	0.764010676507
3	3065	3584.355135604407	2.739537421451
3	3070	3606.311146781142	2.469436828244
3	3075	3615.28162945225	2.00064444871
3	3080	3620.29865799253	4.692595487881
3	3085	3622.293764367458	0.966042872469
3	3090	3642.681774523813	1.202328013213
3	3098	3650.289056670646	4.287163849471
3	3100	3652.921636013586	6.350774394016
3	3105	3658.576111365835	5.336134091497
3	3110	3664.293730127883	1.947766103459
3	3124	3676.771775308742	1.12854291135
3	3126	3678.499050372989	5.325697575007
3	3134	3685.132549889518	1.743031505711
3	3136	3693.182808196196	19.295309419139
3	3138	3696.186108831925	21.380931195079
3	3143	3699.389632650651	0.585846566971
3	3145	3699.532519428634	17.288490220663
3	3150	3700.516017715713	0.744488842155
3	3158	3712.173930608804	8.995458345519
3	3160	3713.457036847422	7.806629125624
3	3165	3715.919158218066	0.228750802005
3	3173	3733.865234595097	1.892694545884
3	3175	3734.809331650335	3.829953128515
3	3183	3746.042161581919	0.187463180359
3	3188	3750.823175037294	7.780856145676
3	3193	3757.731533789517	10.921267133611
3	3195	3758.246214851181	1.033857459806
3	3206	3763.455949978268	3.209143633744
3	3208	3765.242276652763	6.078625793462
3	3210	3771.673228751279	11.319663377968
3	3215	3781.147056960249	4.223218159641
3	3220	3787.395880819846	3.381274331904
3	3225	3789.689555517717	0.517609699072
3	3230	3795.504858301347	0.26253031436
3	3235	3796.429276269113	0.002632488396
3	3240	3803.151000478995	1.934618023108
3	3254	3809.836528944596	1.393702282105
3	3256	3822.760804071722	16.827716980593
3	3258	3824.244011479992	15.696639701472
3	3260	3827.663242505213	18.966279496485
3	3265	3838.743159997625	0.778280565081
3	3279	3856.122529706345	5.738766336134
3	3281	3856.152762561343	1.629961384432
3	3283	3856.960970131579	4.599086948797
3	3285	3857.944978447127	3.75252829585
3	3290	3860.716719119133	1.956890203014
3	3298	3867.993360559327	4.59136543432
3	3306	3881.0958966001	16.487260528557
3	3311	3884.624313820678	2.451748269115
3	3319	3887.999686575186	1.277773812393
3	3321	3889.31903849375	1.636632158448
3	3326	3893.499057670018	20.697096740649
3	3328	3894.169341542768	20.559971390673
3	3333	3904.662602125147	1.457800747363
3	3338	3911.384667226538	2.363583045855
3	3340	3917.704611534218	25.660991410243
3	3345	3938.309920812314	2.307554250289
3	3353	3945.593541695045	2.539782012595
3	3355	3946.992096208504	2.673259080665
3	3360	3949.17197291885	1.377360557108
3	3365	3954.530854948628	0.797444515724
3	3373	3960.149791759254	0.918881517251
3	3375	3964.989389942381	8.257185257749
3	3383	3978.562061931925	4.675181628852
3	3391	3983.05718957297	6.435500600642
3	3393	3985.543018663669	3.780288332261
3	3395	3986.648015433237	4.211138918045
3	3403	3999.858982897278	7.505770622456
3	3405	4000.183507069721	2.461901613171
3	3413	4010.778408507154	3.986692298401
3	3415	4012.520488656168	10.478340124568
3	3423	4022.653181663063	1.360341433198
3	3425	4022.723422861435	3.332609298386
3	3433	4032.777951195246	2.098977183581
3	3435	4036.061729397708	9.139278099931
3	3446	4049.96642659536	2.362584598379
3	3448	4049.973758961584	0.295517879346
3	3450	4056.009434639379	7.678167984589
3	3458	4080.121188462911	16.862978702288
3	3463	4082.943781903458	2.435800376105
3	3468	4086.512812254995	18.931759458373
3	3476	4100.609434231938	14.979754789196
3	3490	4111.23244250907	9.107713356047
3	3492	4111.87541193325	16.748432928397
3	3497	4116.536961482797	7.770798952143
3	3502	4119.704799675644	22.069726777373
3	3504	4120.425587417073	15.108806772782
3	3506	4124.602747310369	8.539625827371
3	3508	4126.55126794138	18.597270935943
3	3510	4127.784849941249	9.213127775931
3	3515	4151.204251295371	1.165921988661
3	3523	4155.729812517844	4.156976709365
3	3525	4163.416988846388	11.711847310312
3	3533	4172.218541639617	6.677818314951
3	3544	4180.10605741988	5.825291653968
3	3549	4187.082893829987	6.425513340588
3	3551	4191.523319706005	20.421083101891
3	3553	4192.141398729294	16.003902461668
3	3555	4192.214987301937	15.805956393264
3	3560	4194.066009854756	1.306059293976
3	3565	4201.434433041766	3.406603902809
3	3579	4209.567523247952	5.417290335047
3	3581	4211.207216027723	2.050752452045
3	3583	4212.537490932528	8.337175727669
3	3585	4217.908779776327	9.024171723515
3	3593	4228.328547376188	0.408720391987
3	3601	4232.274564899951	1.642464224248
3	3603	4233.914565250725	7.509222880643
3	3605	4236.769050093843	4.951177029962
3	3610	4247.964004564826	5.525384269817
3	3621	4254.51048071888	2.020489315384
3	3623	4254.67294186618	0.473423252481
3	3628	4256.215699386003	3.620523865964
3	3630	4256.250585677481	0.75611088509
3	3635	4269.559788086027	4.952596115033
3	3640	4279.945162438976	0.84957741178
3	3648	4291.870272687287	2.952131313896
3	3656	4303.388980968152	11.734031406274
3	3658	4303.556291649191	2.570841446175
3	3663	4311.599244953458	11.792127234593
3	3668	4314.267715146837	9.827315275152
3	3670	4314.328986223692	1.017384460135
3	3675	4324.616390987647	1.616074737603
3	3680	4327.060357154327	0.151212622542
3	3691	4339.640757764975	11.172932491908
3	3693	4344.699607591146	6.386292577408
3	3698	4345.522208251109	8.767815151875
3	3700	4350.816815533309	6.094863887795
3	3708	4359.457481691777	6.148764583494
3	3716	4363.733962113618	3.903691909297
3	3718	4366.948234011779	10.630605044449
3	3720	4370.567498827737	9.417279220555
3	3725	4383.314799533444	2.624749348813
3	3733	4397.0567110037	1.019533166586
3	3741	4405.488161553511	2.323995769644
3	3743	4405.755863223115	8.937628472566
3	3745	4406.038183592626	1.234115950834
3	3750	4409.839188710557	1.100287699188
3	3755	4414.667901455868	0.444078640955
3	3766	4426.158039840353	0.58696609447
3	3771	4429.348911234727	0.457122261456
3	3782	4430.913012061297	1.068133345318
3	3784	4435.40682907036	18.602751114276
3	3786	4438.773600916847	21.808694377194
3	3794	4446.458904705967	2.001364275162
3	3796	4450.269998174375	19.853641876601
3	3801	4451.576838996807	20.843190343422
3	3806	4454.438652442207	9.726429000411
3	3808	4458.744880739151	4.655484143714
3	3810	4459.968831491647	9.593539537207
3	3815	4465.594926664413	2.65059031732
3	3820	4466.40774048534	0.039397074804
3	3825	4485.430655270304	1.402468963285
3	3833	4492.789596606347	2.042611412272
3	3835	4492.960440256797	2.088786939999
3	3840	4497.359060031493	0.188325056132
3	3854	4514.140966365491	5.354987012173
3	3859	4518.775965350358	3.805766143842
3	3861	4520.159137950749	10.757459315409
3	3863	4520.380772382598	7.184112229352
3	3874	4522.657143553792	1.672262567952
3	3879	4524.271066311074	13.894788603102
3	3881	4528.512439426918	6.615704718123
3	3883	4529.458112596936	5.512139898155
3	3894	4538.320720673058	5.051427841452
3	3899	4540.47582998364	3.912183506423
3	3901	4541.019212355587	2.504505289761
3	3903	4551.893993961422	30.200568516894
3	3905	4554.697852816103	18.035315983972
3	3910	4557.214581985948	0.833248502413
3	3915	4576.894121862339	0.34643005508
3	3920	4590.283198174869	11.994529617535
3	3931	4617.121026354018	9.621424005927
3	3933	4627.035405109803	11.393024682937
3	3941	4631.832562063296	3.229997393193
3	3946	4633.471226382216	2.090929480194
3	3948	4636.152146575366	4.194887908271
3	3956	4641.413038671284	2.591317174272
3	3958	4643.652130193732	26.759583674384
3	3960	4643.768159381289	3.663231337302
3	3965	4647.325131612409	0.795937526152
3	3970	4656.277937539356	5.492792852982
3	3978	4662.877496502445	5.375561206304
3	3980	4666.068597387529	6.344334083915
3	3985	4683.555035850698	0.43124019017
3	3993	4692.757254893794	7.683939375906
3	3995	4693.281661151097	5.169596451641
3	4006	4731.119302206636	4.088781268765
3	4008	4732.328861280695	11.563142739313
3	4010	4737.911025279527	10.457431855366
3	4015	4751.796234013421	6.19886535853
3	4020	4763.186059633883	0.580347921485
3	4025	4767.373421735801	1.428041782614
3	4030	4772.904795492933	0.196385578685
3	4035	4809.100034596976	5.600997830917
3	4040	4819.020712811291	5.224926877216
3	4045	4820.815556493927	0.959900330313
3	4050	4826.399516366911	3.40398215411
3	4055	4837.824019785086	2.147270307923
3	4060	4850.33882615453	4.386644364983
3	4068	4855.607203092168	2.581362932337
3	4070	4858.321176616993	5.066706777779
3	4075	4871.156575469289	5.197738239058
3	4083	4887.054246650273	1.455409629352
3	4085	4887.285406904354	11.380032310917
3	4090	4894.237029442177	4.384559242402
3	4095	4900.301447601425	0.141772265198
3	4103	4914.610980091614	3.441752530639
3	4108	4916.190588478643	4.986741756523
3	4110	4918.392582456312	2.437050625793
3	4124	4931.967022781649	1.278951933594
3	4126	4932.967183352618	11.912628933674
3	4128	4935.721719677997	12.964077912906
3	4130	4935.724191595301	3.78213019243
3	4138	4938.208639289048	1.219358231226
3	4140	4938.243830014203	1.264334494487
3	4148	4943.384228938303	1.614367018971
3	4150	4945.285453134127	2.430911534374
3	4155	4949.092356467695	1.877006452019
3	4160	4955.375374642184	2.213350331055
3	4168	4958.663003911755	3.131840086662
3	4170	4960.425631936055	2.665368838015
3	4178	4965.953119866176	0.144042888298
3	4183	4966.986359414811	3.003501615238
3	4185	4967.347235545311	1.065490562012
3	4190	4970.555678025476	0.444175665614
3	4195	4982.507902777005	3.616116542502
3	4200	4999.139712651994	0.971530657416
3	4205	5002.837615105179	1.428598308447
3	4216	5022.77144473466	0.631206141814
3	4218	5026.772011881221	9.738821350141
3	4235	5038.228115802979	20.848084443122
3	4237	5038.447278932505	11.501842988374
3	4239	5041.148745879092	13.697592936116
3	4244	5043.464833634377	12.792058200449
3	4252	5047.597144751728	2.267845166272
3	4260	5048.647382304961	17.600083432783
3	4262	5049.751094531782	11.792750020899
3	4264	5054.867166262295	13.555607652462
3	4266	5055.269647047059	7.547755209333
3	4268	5059.157174300236	14.160465900942
3	4273	5061.098136146641	13.137162043195
3	4275	5062.881725937028	2.602470939084
3	4280	5063.755858591878	0.381489336624
3	4285	5067.297215703125	1.101324540147
3	4290	5073.065254989866	1.654935461163
3	4295	5081.714981884645	1.924185009539
3	4303	5091.148363871422	1.648922561001
3	4305	5092.258385485665	1.696203081928
3	4319	5102.013578670689	2.114348454277
3	4321	5102.439696951868	6.733156424314
3	4323	5103.100629765778	6.217252502563
3	4325	5103.317690505827	3.790689032368
3	4333	5108.579757477127	0.870224796007
3	4338	5110.691307412259	3.489214928727
3	4340	5114.973316009922	4.848147371693
3	4351	5132.117863004421	4.048289829892
3	4353	5132.847130758584	7.372464870318
3	4355	5137.36674626048	20.478156863106
3	4366	5145.725075055851	0.343722958191
3	4368	5148.233546424898	8.851332108541
3	4370	5155.760852829173	10.733653131178
3	4378	5165.09091037512	3.017186112399
3	4380	5165.558846139988	1.591842788274
3	4385	5173.890842186221	0.163145673431
3	4390	5175.674450650912	1.67166513226
3	4398	5178.151391714501	1.367052418187
3	4406	5185.827528789412	8.58843404642
3	4408	5189.207855641776	9.26388402932
3	4413	5191.609926763825	1.916969718533
3	4424	5197.002296163581	2.69076162723
3	4426	5197.850314216635	12.653851436865
3	4428	5198.827785845913	6.656974725705
3	4433	5207.044180726818	11.651076237397
3	4444	5218.585893538448	4.155495715682
3	4446	5220.638164763955	16.505975834955
3	4451	5221.409108519157	0.498952483997
3	4453	5221.938700806519	12.975486107341
3	4461	5224.891902590858	0.012959899167
3	4463	5226.994100471144	16.200144648773
3	4465	5227.099362248623	3.822992975625
3	4473	5235.32071234087	0.969150879791
3	4475	5236.234015888945	8.87635869321
3	4483	5255.410177535411	2.306488844437
3	4494	5266.890847943828	24.422285618736
3	4496	5268.347042457532	7.171344707128
3	4498	5269.394433558048	5.546821151685
3	4503	5271.418378859797	0.430389879669
3	4505	5275.039171863704	10.746980074175
3	4528	5284.903003035767	4.028817262283
3	4530	5285.885634181921	3.063599102279
3	4532	5289.34906226148	6.409224608817
3	4534	5289.393662346895	5.817244149868
3	4536	5290.747845766914	6.855515831601
3	4538	5291.047637108566	12.364584052833
3	4540	5296.95010084367	12.615996557469
3	4545	5302.793191986348	3.192955016657
3	4550	5319.151080843572	0.526696100345
3	4555	5335.02340196796	4.26560079165
3	4569	5347.760128865246	8.016947951889
3	4571	5354.281426684802	13.841013154036
3	4582	5356.070257036276	10.94419589028
3	4587	5357.19365529288	1.779985507719
3	4589	5360.368171053111	3.956034446131
3	4591	5361.906125914228	14.354717600769
3	4593	5367.264943960383	12.2334255698
3	4595	5368.001527567996	12.132533967285
3	4603	5374.133623046622	4.331170220595
3	4605	5376.81294881921	3.188396168149
3	4613	5380.531734928746	0.441964986962
3	4615	5387.614823213439	8.060544331485
3	4620	5396.868637478256	2.271145382288
3	4631	5405.658385225865	2.992417262113
3	4633	5406.046016589058	4.171727560756
3	4635	5406.6661872919	2.80603376926
3	4643	5411.9854506172	4.232961895537
3	4645	5415.305159391919	6.008394230204
3	4650	5420.43364670051	4.126994322803
3	4655	5424.022243713595	3.301586312991
3	4663	5426.906977631625	0.375775865197
3	4668	5433.952778619853	5.283661954382
3	4673	5448.27573459943	22.306367561057
3	4678	5463.38013078914	1.389488517524
3	4680	5470.701403169202	28.567543479397
3	4688	5477.151711317489	1.980126243166
3	4693	5480.284005946932	0.397287626757
3	4698	5483.482880665907	7.816880818747
3	4703	5488.340930426035	3.102738874913
3	4708	5491.197279864546	7.770702430361
3	4710	5492.091068279305	1.755202777988
3	4715	5502.834671814735	6.253745822001
3	4720	5508.017628889866	1.969514742243
3	4725	5509.396156548358	1.002201831827
3	4742	5522.423669453603	1.963840316674
3	4744	5523.763462640095	12.025649789499
3	4758	5549.948864443675	9.036716073248
3	4760	5550.708807890328	4.672996229819
3	4762	5550.77275877441	36.681702091007
3	4767	5552.276040475053	32.857210571851
3	4769	5553.343020699472	1.974821358506
3	4771	5557.151342254299	36.600936154042
3	4779	5563.990882422273	3.891426623751
3	4781	5564.149956809379	25.804192038591
3	4783	5568.532980803532	26.405828258913
3	4785	5572.945722618363	11.029506368737
3	4790	5588.194728266422	4.352834081973
3	4798	5599.801870043243	10.719569991221
3	4803	5600.144549217561	10.980011673388
3	4805	5602.799733497409	2.785740092167
3	4810	5611.508409228371	6.017527919697
3	4815	5616.663463898918	0.011772072594
3	4823	5626.134268109906	3.971441796302
3	4828	5629.853425592928	6.093724101389
3	4833	5635.639415397234	7.404515621938
3	4835	5636.548602178207	3.471627467966
3	4840	5644.573238733994	4.062054437661
3	4848	5648.674107210796	1.609315681616
3	4856	5667.17141693056	3.764494251198
3	4858	5668.489966015306	15.248608159734
3	4860	5670.976879050244	22.965417796945
3	4865	5671.531339670087	0.434493066501
3	4870	5673.036026605416	0.032089797519
3	4881	5680.697234228956	4.177029624713
3	4883	5683.489640141529	6.748128304264
3	4888	5684.061539946692	5.059993751341
3	4893	5686.827515580656	2.922235925966
3	4895	5689.292100603106	4.78945152148
3	4900	5700.662096429261	1.29622762222
3	4908	5711.612221858873	0.439890054168
3	4910	5719.522167278508	8.197500636371
3	4924	5727.071319178542	5.092642667549
3	4932	5729.497830207125	0.753761936338
3	4934	5730.809868061402	2.731548410304
3	4942	5732.432239673316	9.116368336806
3	4944	5736.8461009334	5.567010357781
3	4949	5738.87111702521	14.182169848062
3	4951	5740.477820967788	3.591958845705
3	4953	5742.27091521179	15.530006170384
3	4955	5744.518402664253	13.668670204524
3	4963	5749.47304076531	1.713003582342
3	4965	5750.216302941696	0.979364032283
3	4976	5760.503743922482	10.242531674716
3	4978	5765.981685569324	8.067754146479
3	4980	5774.241506817075	19.870354149929
3	4994	5818.262738965162	19.234951524919
3	4997	5822.615716765753	19.746390220602
3	4999	5823.605385498244	16.858133173765
3	5001	5827.694191753542	13.228716885977
