version 2
run General-6-20170504-11:38:02-97232
attr configname General
attr datetime 20170504-11:38:02
attr experiment General
attr inifile omnetpp.ini
attr iterationvars ""
attr iterationvars2 $repetition=6
attr measurement ""
attr network Toll_road
attr processid 97232
attr repetition 6
attr replication #6
attr resultdir results
attr runnumber 6
attr seedset 6
param **.numBooths 3
param **.queue[*].serviceTime exponential(5.11s)
param **.source.interArrivalTime exponential(5.854s)
param **.source.numJobs 1000

vector 0  Toll_road.queue[0]  jobsProcessed:vector  ETV
attr interpolationmode  none
attr source  queueingTime
attr title  "jobs processed, vector"
vector 3  Toll_road.sink  lifeTime:vector  ETV
attr interpolationmode  none
attr title  "lifetime of arrived jobs, vector"
attr unit  s
vector 2  Toll_road.queue[2]  jobsProcessed:vector  ETV
attr interpolationmode  none
attr source  queueingTime
attr title  "jobs processed, vector"
vector 1  Toll_road.queue[1]  jobsProcessed:vector  ETV
attr interpolationmode  none
attr source  queueingTime
attr title  "jobs processed, vector"
0	3	13.075612989243	0
0	26	64.1519212905	0
0	58	126.835435276586	0
0	62	132.56042834978	2.137486886677
0	86	154.162922592139	0
0	121	182.849427767145	0
0	131	194.596562542691	0
0	153	250.447899884966	0
0	158	259.073848577237	0
0	173	273.816958418943	0
0	188	295.418881576272	0
0	195	314.596780411446	6.503274010194
0	223	363.983282333442	0
0	238	369.953048730159	0
0	251	379.219955700996	0
0	262	384.286906758548	4.279062720722
0	276	403.164308960521	0
0	288	414.475934988453	0
0	319	435.973725731499	0
0	326	437.794742232685	0
0	332	445.60814397894	6.655906497674
0	351	466.124644277254	0
0	361	472.100353237163	0
0	368	500.575262090835	0
0	373	505.472415841482	0
0	383	512.951721240208	0
0	408	542.015248410075	0
0	413	543.179248216725	0
0	431	554.841733417798	0
0	443	583.69156347458	0
0	453	609.505212374086	0
0	466	636.983561745525	0
0	498	699.994681327596	0
0	511	716.508134609286	0
0	515	718.307880875343	0.269185077409
0	543	758.292110868039	0
0	568	789.667095837452	0
0	573	793.161251135843	0
0	594	807.258388361374	0
0	613	823.053853158928	8.911252838439
0	638	857.201370541786	0
0	643	871.359749204466	0
0	661	891.448023330907	0
0	683	917.866838556274	0
0	698	952.573266565977	0
0	708	973.18092498021	0
0	728	1001.677278850449	0
0	740	1010.713547984724	4.902062286411
0	791	1054.460947729444	0
0	818	1090.64742209563	0
0	838	1112.563749351122	0
0	851	1162.412936418994	0
0	872	1183.286136689156	0
0	893	1205.209681461933	0
0	913	1228.737043981994	0
0	923	1232.2148573018	0
0	933	1259.065007096001	0
0	951	1272.978625954695	0
0	968	1287.066706896333	0
0	984	1309.883543223559	0
0	1008	1337.272044384173	0
0	1038	1397.602970446297	0
0	1042	1404.97621287327	6.53471657509
0	1069	1442.567176529242	0
0	1098	1484.338674942928	0
0	1118	1503.078224119032	0
0	1143	1528.435597918464	0
0	1161	1548.025235850034	0
0	1173	1572.723566319439	0
0	1178	1582.737050986903	0
0	1208	1635.777406797356	0
0	1215	1636.649137674975	0.034296256569
0	1228	1661.181891626433	0
0	1232	1672.932882035889	8.749390104896
0	1268	1718.087684955974	0
0	1284	1729.882496262294	0
0	1302	1745.978706493591	0
0	1328	1772.270128575591	0
0	1348	1783.098955413392	0
0	1363	1793.0570453001	0
0	1373	1803.912423238904	0
0	1392	1822.295924038023	1.40128029137
0	1398	1826.265253313805	0
0	1423	1883.118209277619	0
0	1433	1896.080452901082	0
0	1448	1918.426119773912	0
0	1471	1964.700109083676	0
0	1493	1991.528501123213	0
0	1498	2000.796226390349	0
0	1519	2025.393093560838	0
0	1535	2037.693082377731	2.308956844603
0	1551	2047.372912338459	0
0	1603	2109.452317709695	0
0	1612	2118.201087255493	0
0	1627	2145.375230487573	15.888885841624
0	1638	2167.198300462361	0
0	1646	2175.749775630441	0
0	1661	2185.480462111675	5.54404618797
0	1690	2196.648771989591	0
0	1708	2212.855048205825	0
0	1713	2221.103862903838	0
0	1721	2228.533140664584	0
0	1751	2248.723991791312	0
0	1781	2294.792134948347	0
0	1798	2344.168017354262	0
0	1811	2361.175699542007	0
0	1818	2367.700904336539	0
0	1836	2393.076961490173	0
0	1843	2401.541048241171	0
0	1848	2407.08945876679	0
0	1852	2408.266563693126	0.331492877346
0	1883	2445.098605031607	0
0	1887	2453.026204120724	6.840286332597
0	1901	2463.654124104336	10.332036256449
0	1903	2466.807330639314	4.591943407213
0	1915	2476.643111380737	1.332597006113
0	1926	2489.965366955883	0
0	1932	2494.47078190887	4.370635382901
0	1947	2512.685759435479	0
0	1963	2528.924577787103	0
0	1973	2533.280782622499	0
0	1983	2541.61981945391	0
0	2001	2563.851094309724	0
0	2009	2573.213118693284	0
0	2014	2574.522724989264	0
0	2028	2581.044196189681	3.791796326993
0	2030	2581.085253046773	2.838258094482
0	2038	2603.702935736548	0
0	2078	2654.276842181886	0
0	2083	2665.461923630837	0
0	2164	2786.681978598171	0
0	2190	2806.386475592476	0
0	2217	2826.000738616517	0
0	2238	2839.987746341822	0
0	2248	2851.982810878784	0
0	2253	2859.478387906826	0
0	2262	2871.624195236147	7.87401194852
0	2275	2880.048531639556	1.738737817408
0	2282	2887.273054769658	3.041650723216
0	2293	2900.695349337615	0
0	2298	2918.794508741354	0
0	2308	2937.607744682256	0
0	2313	2957.037869899639	0
0	2339	2983.697507136003	0
0	2348	2999.857318472779	0
0	2356	3006.652872305836	0
0	2367	3012.07915193645	3.897893729478
0	2380	3024.568500638388	6.80743887876
0	2388	3037.609480501704	19.471931615337
0	2413	3049.178364824507	13.538485416153
0	2432	3068.132217376531	0
0	2436	3069.978559257042	1.277352725412
0	2450	3079.776126165274	4.810972287333
0	2462	3082.949566809375	0
0	2477	3098.893966196046	0
0	2506	3122.72901315538	0
0	2523	3144.609380785198	0
0	2527	3147.620904359676	1.119430483395
0	2533	3151.694444499747	0
0	2551	3178.14590869292	0
0	2586	3235.255685745983	0
0	2631	3271.553583118025	0
0	2641	3282.080244471175	0
0	2677	3326.754572809094	0
0	2691	3330.829652243135	2.855582941806
0	2698	3335.063556704355	7.071107002646
0	2708	3345.439949423421	0
0	2744	3404.112622781406	0
0	2751	3409.212358056656	0
0	2759	3413.983143086319	0
0	2764	3415.459140564133	0
0	2772	3426.152562288505	9.940247595456
0	2778	3444.182000630296	0
0	2838	3503.431149240396	0
0	2848	3517.520325147143	5.304766521846
0	2863	3536.316894220762	0
0	2876	3547.950293734156	0
0	2888	3557.306528893706	7.172687155091
0	2931	3583.605748796298	0
0	2954	3602.461593480821	0
0	2968	3613.636074128837	0
0	2983	3648.733271072686	0
0	2988	3657.579793633713	0
0	3008	3697.027583662788	0
0	3056	3752.010176649922	0
0	3064	3758.770850701826	0
0	3084	3789.009215697034	0
0	3119	3841.427016198091	0
0	3128	3853.537658784226	0
0	3135	3862.412502031068	6.581071110993
0	3137	3862.565514824686	1.700822355206
0	3142	3868.599206180172	4.570077135278
0	3148	3876.367205220311	0
0	3157	3887.111096965584	7.906011885657
0	3165	3898.71625172653	7.776337116092
0	3207	3966.323007603729	0
0	3212	3968.97690155496	0
0	3243	3991.075183647777	0
0	3252	4004.605986576093	0
0	3328	4091.087969815037	0
0	3358	4181.897932439385	0
0	3373	4195.928429091638	0
0	3416	4256.545426640065	0
0	3430	4264.668117363593	5.964465717996
0	3456	4294.71597119036	0
0	3496	4343.053913193122	0
0	3508	4365.504349530475	0
0	3513	4377.529527536923	0
0	3517	4390.775736673326	1.860768390874
0	3523	4402.012266620948	0
0	3527	4406.719670542982	0.533231537998
0	3533	4408.800240653506	0
0	3543	4422.335426576382	0
0	3548	4430.119137003912	0
0	3565	4441.764266887583	0
0	3569	4443.816666653125	1.28676612546
0	3596	4465.469963257791	0
0	3622	4488.689424261088	0
0	3634	4495.269962563962	0
0	3666	4519.466829428583	0
0	3678	4537.343531290627	0
0	3683	4548.113111750508	0
0	3687	4548.426426101458	0.011248744534
0	3706	4572.843988102623	0
0	3719	4595.852710011789	0
0	3730	4604.418907955435	5.146376789696
0	3735	4616.904853230272	12.514130527601
0	3737	4619.722701349915	7.73872740684
0	3745	4629.00420417734	7.035705519051
0	3747	4630.289805893507	2.767861392412
0	3753	4637.069196316074	0
0	3761	4645.370967068443	0
0	3768	4661.329485516046	0
0	3786	4690.874876513684	0
0	3817	4708.334850321277	0
0	3823	4713.097884900418	1.317422723805
0	3829	4722.051142836884	0
0	3848	4745.958336088122	0
0	3873	4793.079878200692	0
0	3894	4825.927338234908	0
0	3903	4830.468086357082	4.297439365419
0	3918	4847.13332675809	0
0	3933	4864.450915010244	0
0	3951	4896.379623134762	0
0	3957	4903.326409920963	6.764662480155
0	3963	4915.866384825374	0
0	3973	4946.858813721843	0
0	3994	4963.634895120249	0
0	4006	4976.324126061339	0
0	4011	4984.514820392267	0
0	4017	4988.101158208224	1.580146623085
0	4028	5008.893224340093	0
0	4046	5040.274943210686	0
0	4056	5044.778213208418	0
0	4063	5063.957787337489	0
0	4098	5117.852186687101	0
0	4103	5120.358058829869	0
0	4113	5141.320529099178	0
0	4135	5159.020266908895	2.257169068608
0	4148	5170.77230159105	0
0	4158	5181.809195517553	0
0	4178	5236.49339820668	0
0	4183	5238.932782338529	0
0	4208	5271.557077693925	0
0	4212	5274.64734569123	1.303420611022
0	4227	5279.801018604037	0
0	4239	5289.532155327285	0
0	4248	5303.836690772749	0
0	4282	5329.424720317174	0
0	4306	5360.750629429871	0
0	4312	5373.779455443173	9.047162861244
0	4318	5379.691507204669	0
0	4322	5392.683271040871	12.644134684622
0	4341	5399.752921969801	0
0	4348	5405.500527842559	0
0	4357	5413.589274833431	4.170554743472
0	4368	5424.886602697806	0
0	4373	5427.383079445277	0
0	4407	5471.88552007602	0
0	4429	5502.622140109586	0
0	4440	5506.558133034716	0
0	4463	5537.964971986807	0
0	4481	5544.964423867573	0
0	4513	5610.26395846663	0
0	4539	5627.159804845875	0
0	4558	5647.417278613636	0
0	4563	5648.834969247943	0
0	4578	5659.62800714453	0
0	4591	5681.23072283168	0
0	4600	5687.835100645283	6.268791031033
0	4602	5690.84992149002	9.010600104171
0	4611	5711.539197363185	0
0	4719	5842.133448580737	0
0	4753	5932.106978138405	0
0	4762	5940.904871130246	6.844898133505
0	4804	5985.260616228435	0
0	4828	6016.815159329949	0
0	4843	6039.095344000483	0
0	4878	6076.067256757505	0
0	4888	6081.201109577675	0
0	4893	6095.811724747755	0
0	4909	6122.161807326945	0
0	4913	6125.301843300045	0.081373309368
0	4946	6159.798581988602	31.798156863223
0	4951	6163.475166086843	17.760007735548
0	4955	6165.646294014033	19.199202664162
0	4957	6177.564777327081	30.536527746778
0	4981	6207.222613212188	0
0	4988	6217.551709111124	0
0	4998	6230.131725523568	0
1	11	30.713120091234	0
1	18	55.309451054941	0
1	23	59.727078868442	0
1	51	114.602714746917	0
1	69	140.432515890899	0
1	78	147.661531920072	0
1	100	163.817936382261	2.885511931429
1	111	178.173429156694	0
1	128	190.883654815115	0
1	138	221.203004926745	0
1	143	236.544763601559	0
1	148	243.783787944894	0
1	163	263.029377136762	0
1	178	281.58536937745	0
1	208	330.339170584009	0
1	231	367.987966672811	0
1	243	372.993417790391	0
1	248	378.174927096471	0
1	258	383.51367215016	3.75319375122
1	268	398.667118710642	0
1	273	402.878300986127	0
1	291	415.293886752343	0
1	298	418.738363911716	2.10500195267
1	300	420.698597748669	3.478625080194
1	310	430.857259095177	1.408790791658
1	338	450.795741724672	0
1	348	461.259379499176	0
1	378	507.946449204122	0
1	388	515.490683813721	0
1	392	520.625379076503	4.896969843186
1	402	532.845781664209	7.910844491895
1	458	632.920261705114	0
1	473	643.475322488321	0
1	483	659.63744545322	0
1	493	682.279440175784	0
1	503	702.572464884276	0
1	507	708.039927666197	4.083264403756
1	522	725.088612061638	5.041668613004
1	536	747.390467439037	0
1	559	771.695931808753	0
1	597	808.085540761713	0
1	610	819.708342695707	0
1	623	829.807157428735	0
1	633	842.114133708569	0
1	658	891.198201759391	0
1	668	901.360520304975	0
1	688	931.523528245869	0
1	693	945.561017397459	0
1	718	978.228972310035	0
1	751	1017.121674093783	0
1	761	1023.0432614731	0
1	776	1041.023843832871	0
1	780	1046.198663367029	3.419723312884
1	796	1057.33287749631	0
1	803	1069.177758295267	0
1	813	1088.075019609718	0
1	843	1123.650099950016	0
1	848	1157.669793001693	0
1	868	1181.125611426381	16.3596513004
1	878	1187.978731052966	17.326219573378
1	882	1188.98685096662	16.091659132449
1	888	1193.863188393457	0
1	901	1208.564750717358	0
1	908	1214.59432670596	0
1	928	1247.172699888763	0
1	948	1267.092147521871	0
1	957	1275.992712499148	1.903277105997
1	963	1279.202182660911	0
1	987	1312.798273874693	0
1	998	1322.312220404361	3.669842666097
1	1000	1323.567706392233	2.589331295745
1	1013	1345.408768207043	0
1	1017	1349.110638348294	1.57152698026
1	1023	1364.356672602315	0
1	1033	1390.307798177448	0
1	1058	1416.510169498766	0
1	1062	1424.188284917262	0.856938398257
1	1072	1444.176900135361	19.109334183377
1	1077	1456.808954155502	9.43537134122
1	1083	1463.673291008342	0
1	1087	1467.703600457736	3.43328090915
1	1109	1489.82060219947	0
1	1146	1528.48408449319	0
1	1158	1547.694212460245	0
1	1193	1605.183549080088	0
1	1198	1614.273203772993	0
1	1211	1636.250794035298	0
1	1238	1677.386931706281	0
1	1246	1689.187727769153	0
1	1255	1698.819772109883	7.511024608531
1	1273	1725.747482315233	0
1	1278	1728.6363058447	0
1	1299	1744.775597528813	0
1	1316	1757.808213940062	0
1	1322	1762.949353512174	0.172821333575
1	1333	1775.552910828899	0
1	1337	1777.312242938154	1.743952463692
1	1343	1782.169173332541	0
1	1351	1783.996942164187	0
1	1355	1786.80863864138	1.348496595961
1	1366	1796.414333202792	0
1	1379	1808.151871582958	0
1	1384	1813.921898199625	0
1	1418	1872.175321708836	0
1	1428	1886.742740693406	0
1	1466	1949.402835875106	0
1	1474	1964.953578096959	0
1	1485	1979.521731662544	11.604821605709
1	1487	1985.715734362447	12.799111793194
1	1508	2015.742680789363	0
1	1522	2027.137545277257	0
1	1537	2037.740529852644	8.988801203004
1	1556	2053.326363925537	12.941271751851
1	1566	2062.491044225913	0
1	1570	2065.544918302751	2.206769429391
1	1581	2085.321984309221	0
1	1585	2088.33744307924	0.136404814334
1	1594	2097.124297560323	0
1	1615	2121.215286478288	16.683088706801
1	1649	2179.345215414221	0
1	1656	2182.880354724025	1.053520225995
1	1693	2198.746502120578	9.842198445514
1	1698	2204.372794369167	14.163395655222
1	1700	2208.832745013339	17.925295513378
1	1726	2235.804695396461	0
1	1735	2243.588499616608	1.029877568575
1	1743	2246.421863225994	0
1	1754	2252.030371228849	0
1	1761	2260.123111532454	0
1	1776	2291.173596905031	0
1	1788	2305.847743513781	0
1	1793	2331.708776390028	0
1	1801	2352.393928085824	0
1	1858	2417.257531967636	0
1	1868	2426.202664957954	0
1	1876	2437.306759005574	0
1	1907	2467.030513157955	0
1	1993	2562.07865591351	0
1	2055	2613.420280339001	0
1	2060	2620.290261002696	0
1	2073	2645.962818121493	0
1	2091	2684.806229623581	0
1	2101	2693.148605128067	0
1	2118	2716.024548026967	0
1	2148	2758.644392693764	0
1	2167	2788.64380104612	0
1	2176	2794.266165227424	1.67591316806
1	2198	2818.682862983339	0
1	2208	2820.355881634646	0
1	2220	2827.532797521331	0
1	2229	2832.549701360171	0
1	2241	2840.76077647208	0
1	2266	2874.808447885009	0
1	2273	2878.668363063405	2.665267663103
1	2301	2919.277279977226	0
1	2334	2980.379981163435	0
1	2371	3015.884748592741	0
1	2395	3042.5313736005	0
1	2408	3045.216599289144	0
1	2419	3053.621746544875	0
1	2438	3072.684129939945	16.720889824205
1	2440	3074.747257576602	16.737191546701
1	2465	3086.04649071965	0
1	2486	3111.56173096342	0
1	2497	3119.784085821497	5.735470098133
1	2518	3134.997500725769	0
1	2538	3164.771132181365	0
1	2548	3175.651063638656	0
1	2561	3200.619558313383	0
1	2568	3210.281438700155	0
1	2589	3235.930282872184	0
1	2603	3251.871884338736	0
1	2608	3252.894079436013	0
1	2615	3259.761933969497	5.086205089817
1	2622	3265.60221080026	1.568602278393
1	2628	3270.417646163326	0
1	2638	3280.749504301355	0
1	2656	3304.558076024669	0
1	2663	3309.997647715758	0
1	2681	3327.691694047288	16.257121358726
1	2689	3330.366026004933	7.033382629025
1	2693	3331.689452158396	4.7592942438
1	2724	3380.044222487567	0
1	2733	3391.431561250172	0
1	2783	3457.355004255959	0
1	2788	3461.677507525055	0
1	2792	3462.983921588335	0.275382608124
1	2803	3472.088373813432	5.001379707002
1	2818	3482.455258927031	0
1	2822	3489.769920121462	4.643417446885
1	2831	3499.272264414599	0
1	2858	3525.328201839819	0
1	2866	3538.87643243475	0
1	2873	3542.469960883335	0
1	2886	3552.785625316457	4.14638873942
1	2903	3562.578808397974	5.064145912944
1	2918	3573.493671232588	10.477996056155
1	2920	3575.189116784179	8.896079350717
1	2922	3577.862855822228	10.44263426942
1	2928	3580.185633040577	0
1	2940	3592.524897631252	4.624089535295
1	2963	3608.392876890366	0
1	2976	3633.397841860601	0
1	3013	3704.754423455079	0
1	3023	3708.900509638074	0
1	3028	3714.6161203478	0
1	3033	3717.002448855451	0
1	3038	3718.123675369757	0
1	3048	3736.044814625422	0
1	3069	3768.492638233646	0
1	3081	3784.95423826671	0
1	3090	3794.501134796493	4.128834396832
1	3098	3797.951405108462	3.42175334794
1	3113	3829.638466309273	0
1	3178	3930.969901768464	0
1	3188	3938.19386521728	0
1	3193	3946.994950796607	0
1	3198	3956.792783768915	0
1	3218	3970.721173814678	11.271749917728
1	3228	3977.644508323121	15.533529719119
1	3244	3993.427307533652	20.373472527731
1	3248	4001.56390875367	23.456311546161
1	3253	4007.517195773747	22.134649037105
1	3257	4016.573950269895	27.85478936657
1	3284	4039.539777783171	0
1	3290	4046.05704962203	5.86700169571
1	3295	4051.477570957491	1.249299028259
1	3304	4054.69215120133	0
1	3308	4063.9854187009	8.337351910126
1	3319	4073.614577858275	2.681405692349
1	3343	4135.551952897166	0
1	3348	4152.512464034816	0
1	3353	4160.95024278622	0
1	3364	4186.660751485843	0
1	3386	4206.75708291001	0
1	3408	4244.663701713191	0
1	3413	4256.444473432647	0
1	3426	4261.632764861494	3.892064785257
1	3437	4265.494796298237	0
1	3443	4266.439308324785	0.286127957654
1	3453	4294.256408317771	0
1	3461	4300.762274113077	0
1	3473	4307.117389825974	0
1	3482	4326.501949096548	19.325613618774
1	3493	4337.773728067279	0
1	3581	4450.648339188178	0
1	3605	4473.820207027844	0
1	3612	4479.300799498544	0
1	3623	4490.053039237689	9.286221569631
1	3651	4509.269300029851	0
1	3658	4510.976225943178	0
1	3691	4550.334113072645	0
1	3701	4563.279682708331	0
1	3756	4637.974326719533	0
1	3778	4686.788862241989	0
1	3782	4690.697262693192	3.530648935005
1	3796	4701.914624145517	0
1	3806	4705.473487440403	0
1	3811	4706.01722655919	0
1	3830	4723.20045108578	15.324050081072
1	3838	4736.728741340075	0
1	3858	4752.958765643354	0
1	3868	4781.54347851128	0
1	3876	4793.569588842734	0
1	3891	4821.308037000713	0
1	3901	4826.533414608452	0.128833686501
1	3921	4857.652277093814	0
1	3943	4884.560521685316	0
1	3948	4890.618673368718	0
1	3968	4937.770442455656	0
1	3986	4962.23056866086	0
1	4033	5032.62402343381	0
1	4053	5044.121658847528	0
1	4084	5102.006943257162	0
1	4093	5116.291153474824	0
1	4108	5125.074575514297	0
1	4116	5145.444582481552	0
1	4134	5158.616787809172	0
1	4153	5175.378810330513	0
1	4166	5194.258911513596	0
1	4173	5211.046777514013	0
1	4191	5251.320983111073	0
1	4216	5274.875868854966	0
1	4230	5283.049511926704	6.306540777786
1	4232	5284.657447543032	6.72151380385
1	4242	5296.600421606771	9.514436984878
1	4251	5306.29065853761	0
1	4258	5317.045955733912	0
1	4263	5322.267016639206	0
1	4293	5341.812856465425	0
1	4297	5348.197573061886	4.876454207338
1	4331	5397.059269605235	0
1	4381	5448.874462708291	0
1	4391	5456.808539129564	7.617085341531
1	4398	5464.515363385423	8.148703902369
1	4416	5481.730888379113	0
1	4421	5491.393395881587	0
1	4432	5502.666889990463	0
1	4453	5530.524428102494	0
1	4458	5537.377039346359	0
1	4468	5539.025635889327	0
1	4476	5541.90783596508	0
1	4496	5564.170404313539	0
1	4503	5583.44764843831	0
1	4508	5600.730065231635	0
1	4521	5616.553834542506	0
1	4530	5623.122362196304	1.666058560375
1	4532	5625.244089778206	2.898220798215
1	4540	5627.261708383871	1.860258001036
1	4552	5632.89817322104	0.811779965252
1	4588	5681.023535035103	0
1	4608	5705.58054965524	0
1	4625	5717.966641292057	6.320175144679
1	4651	5756.012484863335	0
1	4661	5759.584103404083	0
1	4673	5776.489695978941	0
1	4704	5822.36313882975	0
1	4711	5832.607826236892	0
1	4715	5841.591663568948	3.928245607423
1	4728	5858.835574680262	0
1	4759	5937.559769400123	0
1	4766	5941.732922245671	0
1	4773	5964.686923982725	0
1	4780	5971.307540768944	3.667648010075
1	4785	5976.709707365974	7.598566883848
1	4796	5982.731677729085	0
1	4813	5993.303089393506	0
1	4820	5996.997224354082	3.170550577738
1	4822	5997.539947234579	1.558569748063
1	4836	6030.371962231559	0
1	4863	6062.706942244808	0
1	4868	6068.128905943262	0
1	4881	6077.620118115751	0
1	4924	6141.750876643583	0
1	4943	6151.444428351608	0
1	4950	6160.997384346458	0
1	4961	6188.172865420679	0
1	4968	6195.902512069374	0
1	4973	6198.955698841507	0
1	4977	6204.45411854774	3.320377778872
2	8	30.324345087023	0
2	33	74.362268694146	0
2	38	82.156048405504	0
2	42	88.740519311158	4.979351708515
2	48	110.852616898834	0
2	66	137.846460271954	0
2	81	152.683733933692	0
2	89	155.594578054772	0
2	93	159.626269550143	0.421920364107
2	106	168.815061464192	0
2	118	180.711554135485	0
2	166	264.259630332061	0
2	181	284.534161353309	0
2	194	314.595269229108	0
2	203	327.189572636383	0
2	211	333.370239974794	0
2	218	357.253648135067	0
2	228	367.632984544522	0
2	281	409.296168084986	0
2	306	426.098068818304	0
2	316	434.080260799081	0
2	341	452.916282747533	0
2	356	470.14790206151	0
2	396	524.866599229441	0
2	416	543.36276332892	0
2	425	553.092949125302	6.732505424328
2	427	554.280474576509	3.577188582648
2	438	562.531652976932	0
2	446	586.969088621465	0
2	463	636.868962803913	0
2	476	646.286843594818	0
2	488	672.109407156145	0
2	528	731.745079481374	0
2	533	740.391850045146	0
2	546	762.387125519885	0
2	551	769.31258212649	0
2	562	774.982335995202	4.050649546993
2	576	793.913235817889	0
2	582	803.672514480916	1.766800214675
2	588	805.466308241516	0
2	606	819.072915493803	12.187106145015
2	611	822.878469546453	6.467300645732
2	628	837.391740554429	0
2	648	878.446781565107	0
2	652	879.027677726362	0.338921516534
2	671	902.186517625335	0
2	678	913.040583564539	0
2	701	958.112845732453	0
2	713	974.935526581375	0
2	723	985.773765082762	0
2	734	1009.010550651639	0
2	738	1009.663428578571	0.254027154915
2	746	1012.267128987919	0
2	754	1017.145989525257	0
2	768	1026.631768913583	0
2	772	1038.339553738669	5.546750311571
2	786	1050.343724144271	0
2	808	1086.20209137328	0
2	823	1103.571664688945	0
2	827	1105.812858800499	1.184146540436
2	832	1107.364640245112	0.147795987071
2	857	1166.781402818293	0
2	875	1186.228623397005	0
2	896	1206.98525987971	0
2	916	1229.030581142111	0
2	936	1259.458549184104	0
2	940	1262.31662852164	0.66566718214
2	973	1289.904285605933	0
2	980	1303.11178439039	1.379384000539
2	988	1314.43056847142	12.695128108233
2	1028	1369.994304026462	0
2	1046	1405.300040870419	0
2	1050	1410.968048444112	3.94380714326
2	1093	1471.039052542448	0
2	1103	1489.459143713721	0
2	1110	1494.87587247314	5.114607439561
2	1121	1505.369838102027	0
2	1126	1510.508040986626	0
2	1130	1512.050005776704	1.04403431832
2	1136	1513.602356494168	0
2	1153	1542.029825261277	0
2	1168	1566.551403955193	0
2	1181	1585.401848615296	0
2	1188	1594.06557113115	0
2	1203	1628.374770832506	0
2	1223	1660.687677412129	0
2	1241	1681.961616619357	0
2	1254	1696.501905895642	0
2	1263	1703.655205286301	0
2	1281	1729.734287070262	0
2	1293	1735.530778073543	5.150709558089
2	1305	1746.892444536517	12.099710801749
2	1313	1753.883473899888	0
2	1376	1804.6760710343	0
2	1401	1833.658477033009	0
2	1408	1850.289105550612	0
2	1413	1856.163224836847	0
2	1436	1905.434282229569	0
2	1441	1912.097476356929	0
2	1453	1920.827356707986	0
2	1458	1934.712469427883	0
2	1462	1943.715371203165	4.351167455651
2	1503	2002.647071866049	0
2	1513	2018.739661395504	0
2	1544	2045.046175421085	21.786973780248
2	1552	2049.910405010304	16.210092429393
2	1560	2056.340425690796	20.924632090369
2	1562	2059.218999786549	12.103295118495
2	1577	2079.698362631108	8.788382969884
2	1606	2112.775053832663	22.622956544308
2	1608	2115.418968600876	9.03865870615
2	1622	2132.676956766507	0
2	1633	2157.10644324713	0
2	1643	2173.82587333582	0
2	1669	2187.888840875922	4.370273683824
2	1671	2188.176615692088	1.86945621071
2	1684	2190.992541862949	3.742731790606
2	1697	2200.527065289009	0
2	1718	2227.443973654256	0
2	1734	2243.09218345952	0
2	1746	2247.960519097796	0
2	1768	2268.11442458251	0
2	1772	2289.282023327528	7.505301315374
2	1808	2360.367247338162	0
2	1823	2372.421851566421	0
2	1827	2379.466425087091	5.400072429925
2	1833	2389.507456311642	0
2	1863	2421.050169724524	0
2	1873	2436.59864160478	0
2	1894	2458.001510034925	0
2	1910	2471.19321125915	7.593426330669
2	1923	2488.764165166951	0
2	1936	2500.655558106732	0
2	1948	2517.204471575525	13.138621528244
2	1950	2517.345470678487	5.816048616552
2	1956	2522.41512859603	0
2	1966	2529.424396297055	0
2	1978	2538.054589429844	0
2	1988	2557.175891291778	0
2	1996	2563.126687403523	0
2	2024	2579.528103244038	9.002951905799
2	2026	2580.617763022599	3.26515649277
2	2043	2608.622414315569	0
2	2063	2622.255822959093	10.836629199603
2	2065	2635.238081116642	23.183591122163
2	2067	2638.167451523386	24.887451775949
2	2088	2681.919089419366	0
2	2097	2689.22601874859	3.658106285708
2	2108	2700.336727632681	0
2	2113	2703.19514276132	0
2	2123	2721.226598642102	0
2	2127	2730.014356932355	6.902885546581
2	2132	2733.067369775741	1.160431117904
2	2140	2734.661794116295	0.989399393457
2	2142	2737.137873194752	2.871785159212
2	2151	2761.823224813658	0
2	2158	2779.006377650926	0
2	2183	2800.110295541621	14.561807005843
2	2199	2819.225744957005	28.621972175255
2	2211	2821.167311316841	22.522617704725
2	2213	2825.325019409986	20.964412405616
2	2223	2827.911053317488	12.209187184747
2	2232	2837.4846519708	17.403227548845
2	2256	2860.911181635077	0
2	2288	2892.511550935678	0
2	2316	2963.714133616457	0
2	2325	2973.541114544836	5.475809886512
2	2327	2975.401646889242	5.523024481471
2	2340	2985.866296111483	6.199221609655
2	2353	3003.580579069297	0
2	2364	3009.028138700493	0
2	2384	3033.537682612848	0
2	2401	3043.740519758891	5.48771568245
2	2411	3047.768455487819	4.848812148398
2	2426	3060.10192301154	15.491207067831
2	2449	3078.553080944412	0
2	2468	3091.522718822955	9.58758313095
2	2470	3092.419750549546	10.143510004896
2	2480	3101.637438598633	3.944016370224
2	2494	3115.809915806898	0
2	2503	3122.494728647155	0
2	2513	3126.252020673033	0
2	2543	3171.403009960045	0
2	2558	3196.766648338279	0
2	2571	3213.346554176954	0
2	2576	3218.512690773593	0
2	2583	3232.646552812891	0
2	2598	3236.84133974164	0
2	2611	3254.327687665745	0
2	2648	3298.783712311995	0
2	2653	3302.613715804779	0
2	2672	3324.831173860646	0
2	2697	3333.686058758583	0
2	2713	3372.944010188278	0
2	2718	3379.171598754379	0
2	2725	3382.086273206787	2.394888209079
2	2738	3393.309007982761	0
2	2747	3407.948978750885	5.025944381947
2	2768	3422.954456912171	12.336147182644
2	2796	3466.252322199768	0
2	2810	3476.201515665691	5.719646127198
2	2812	3476.258249633562	1.18270702597
2	2828	3497.768283385801	0
2	2841	3508.68505088796	0
2	2850	3519.531772172518	3.043455762386
2	2882	3549.714864666042	0
2	2898	3559.879145837551	0.360814134115
2	2908	3564.454005952794	3.826841088967
2	2936	3587.710722616004	0
2	2948	3599.750469437536	6.944012235772
2	2950	3601.671516501234	7.97953820627
2	2973	3625.049049808339	0
2	2991	3663.131717582381	0
2	2998	3685.989518374798	0
2	3003	3689.063631560394	0
2	3016	3706.064848803622	0
2	3043	3730.096750718102	0
2	3053	3749.353947529291	0
2	3072	3769.881257843686	13.302322596298
2	3078	3773.123900001637	0
2	3097	3794.85213110506	0
2	3108	3816.349710316403	0
2	3116	3837.941014048628	0
2	3154	3881.782385082653	0
2	3164	3897.270944359719	0
2	3170	3903.17740356956	4.066668620228
2	3181	3932.472609397209	0
2	3217	3970.583799178076	0
2	3227	3976.825555666395	0
2	3263	4024.135672666225	0
2	3268	4031.791366804222	0
2	3278	4037.946538367694	5.922571245899
2	3280	4038.461961903025	5.177975575804
2	3288	4045.687574597844	7.762980958395
2	3331	4102.606660777871	50.731175722145
2	3333	4104.132094750981	39.602873757367
2	3335	4105.037636037634	34.122706769406
2	3337	4105.823732122732	29.741128852084
2	3361	4185.853533710686	0
2	3378	4197.378433293458	0
2	3383	4205.954596062089	0
2	3391	4209.062705639268	0
2	3398	4224.771980762796	0
2	3403	4244.01331227634	0
2	3425	4261.614995218097	0
2	3438	4266.052395807073	0.744130063558
2	3464	4301.366496320752	0
2	3479	4323.736816277775	0
2	3486	4327.508361286423	0
2	3499	4344.2244114043	0
2	3538	4416.924496549265	0
2	3553	4437.786031115342	0
2	3588	4460.629769687695	22.267201686177
2	3592	4464.198952263434	25.48897800639
2	3599	4467.714944076686	27.363413816668
2	3601	4473.403113883331	29.028371559004
2	3608	4476.604660926297	25.970926758447
2	3616	4481.547204237692	25.082113655518
2	3618	4487.183352145356	27.10547123616
2	3635	4495.533151594255	2.522833011409
2	3643	4501.174728764683	0
2	3647	4506.942493048293	1.254027957539
2	3661	4512.805959811292	0
2	3673	4533.131475844887	0
2	3698	4560.9345931766	0
2	3713	4589.380802895173	0
2	3720	4596.068163997724	4.494741839538
2	3771	4668.172632110809	0
2	3793	4693.544540585277	0
2	3803	4703.666571987513	0
2	3841	4737.47401266379	0
2	3851	4748.213583898092	0
2	3863	4774.839166944431	0
2	3883	4803.740170039232	0
2	3887	4819.857198962128	5.353533494003
2	3913	4843.212857253293	0
2	3926	4861.208101914257	0
2	3938	4881.520722668377	0
2	3976	4949.138342609793	0
2	3982	4959.183667062148	7.225296642213
2	3991	4963.616883513403	0
2	4003	4973.864190888507	0
2	4023	5001.557432281553	0
2	4036	5034.562468373078	0
2	4042	5036.183823436545	0.72821421844
2	4068	5074.781782845506	0
2	4073	5095.043464743684	0
2	4080	5099.400857601925	4.356165385159
2	4085	5102.917621198227	6.054500641605
2	4119	5147.397301880039	0
2	4124	5155.688937728066	0
2	4143	5167.899525859176	0
2	4163	5192.605598613353	0
2	4188	5251.017776445861	0
2	4196	5255.608795869556	0
2	4203	5269.472701526398	0
2	4268	5322.794040780203	0
2	4273	5327.098394114834	0
2	4283	5333.033896309237	4.595852345857
2	4285	5334.118296892569	4.863106828691
2	4303	5360.478874384705	0
2	4326	5393.434312909809	0
2	4336	5397.712634092069	0
2	4351	5405.573687014333	0
2	4361	5416.092847405479	0
2	4378	5448.803330487834	0
2	4396	5460.737988238584	4.950634365893
2	4408	5475.479339219582	17.802549734878
2	4410	5477.023845943441	5.689576787474
2	4445	5509.853075704077	13.342276585552
2	4447	5513.948721332972	8.102086652614
2	4471	5540.548639815302	0
2	4486	5551.022849524217	0
2	4493	5560.481996232798	0
2	4518	5612.75867804574	0
2	4544	5627.488720367063	0
2	4566	5650.804546126134	0
2	4572	5658.632655903142	6.402242355998
2	4583	5665.301693115203	0
2	4619	5714.191112193741	0
2	4623	5717.712638344161	1.70598849782
2	4633	5723.367233451782	0
2	4638	5726.460690126161	0
2	4643	5739.39538159085	0
2	4648	5752.768221912861	0
2	4658	5757.949793788394	0
2	4666	5767.034948236273	0
2	4676	5788.902717542322	0
2	4682	5795.48765922877	6.235262247853
2	4688	5801.468025816842	0
2	4693	5808.563456832264	0
2	4700	5820.798746997305	11.762302627219
2	4707	5830.879902972646	15.690121988528
2	4733	5887.920971436721	0
2	4738	5888.815963061199	0
2	4743	5912.908507207968	0
2	4748	5924.511131937146	0
2	4784	5975.420152991244	0
2	4791	5980.051988837011	0
2	4805	5990.64876153578	7.551386185873
2	4833	6028.6765616584	0
2	4846	6040.61051899063	0
2	4850	6049.658384917389	8.818116637041
2	4855	6053.484657056471	3.190945531294
2	4873	6071.729420912366	0
2	4898	6098.612281544952	0
2	4903	6114.270086151434	0
2	4918	6131.883653126319	11.548768056345
2	4938	6151.411497126899	0
2	4993	6227.64461052875	0
3	5	21.873246126957	8.797633137714
3	13	30.906396205344	0.582051118321
3	15	31.248513571038	0.535393479804
3	20	58.082510759438	2.773059704497
3	28	64.705425741845	4.978346873403
3	30	71.339391770385	7.187470479885
3	35	78.091989799834	3.729721105688
3	43	88.740519311158	6.584470905654
3	45	97.499115230828	13.737947628185
3	53	116.651290874545	5.798673975711
3	55	123.473191055208	8.870476308291
3	63	132.56042834978	5.724993073194
3	71	140.840417027709	10.417475564606
3	73	142.743652632301	4.897192360347
3	75	144.410995871658	3.978479980759
3	83	153.939568382673	1.255834448981
3	94	159.626269550143	4.031691495371
3	96	160.618301640606	6.455379048467
3	101	163.817936382261	16.156404462189
3	103	165.311852176565	6.107502990529
3	108	170.27433309996	9.341908649128
3	113	179.668305069103	1.494875912409
3	115	179.7310074713	10.915946007108
3	123	187.701849985921	6.990295850436
3	125	189.429115488441	6.579687721296
3	133	197.209974697504	6.326319882389
3	135	197.656150433261	3.05958789057
3	140	227.935259706176	6.732254779431
3	145	236.984517569148	0.439753967589
3	150	244.097682586522	0.313894641628
3	155	257.84263541162	7.394735526654
3	160	262.960302588205	3.886454010968
3	168	266.285680565542	3.25630342878
3	170	269.121403284505	4.861772952444
3	175	274.888113099004	1.071154680061
3	183	285.781462650886	4.196093273436
3	185	288.638932599584	4.104771246275
3	196	314.596780411446	19.177898835174
3	198	317.933928669229	3.338659440121
3	200	319.51980492587	11.426298524618
3	205	328.669094933566	1.479522297183
3	213	337.259873274587	6.920702690578
3	215	337.471720514096	4.101480539302
3	220	358.020026931693	0.766378796626
3	225	366.471448047804	2.488165714362
3	233	367.992324704966	0.004358032155
3	235	368.726612296614	1.093627752092
3	240	370.773259839275	0.820211109116
3	245	376.773700475722	3.780282685331
3	259	383.51367215016	5.338745053689
3	261	383.86378344038	4.10330504144
3	263	384.286906758548	5.066951057552
3	265	387.646647599681	7.638803561855
3	270	400.800451281165	2.133332570523
3	278	404.678231598465	1.513922637944
3	283	409.932196994038	0.636028909052
3	285	412.386183481221	9.507882495094
3	299	418.738363911716	3.444477159373
3	301	420.698597748669	4.065235789623
3	303	425.309093654623	10.83315866617
3	311	430.857259095177	13.637286426702
3	313	431.639291470554	5.54122265225
3	321	437.04360607458	7.595137771061
3	323	437.100735248496	1.127009516997
3	331	443.805104100004	9.724843300923
3	333	445.60814397894	7.813401746255
3	335	445.826061974356	6.87382449309
3	343	456.432251823725	5.636510099053
3	345	460.79491469873	7.878631951197
3	353	466.347810283334	0.22316600608
3	358	470.217997933239	0.070095871729
3	363	473.535418057934	12.276038558758
3	365	473.591624695831	1.491271458668
3	370	501.187533250437	0.612271159602
3	375	507.169097681344	1.696681839862
3	380	511.342203060933	3.395753856811
3	385	513.194897760912	0.243176520704
3	393	520.625379076503	5.134695262782
3	401	526.521651638725	1.655052409284
3	403	532.845781664209	17.117372430892
3	405	534.524233287109	9.589296114795
3	410	542.369506627027	0.354258216952
3	424	552.019702364568	8.840454147843
3	426	553.092949125302	9.730185796382
3	428	554.280474576509	7.920030875535
3	433	557.656584694413	6.953298700552
3	435	560.130891308547	5.289157890749
3	440	564.7704135554	2.238760578468
3	448	588.775261595776	5.083698121196
3	450	602.664030064614	15.694941443149
3	455	627.201418428745	17.696206054659
3	460	634.433991091938	1.513729386824
3	468	638.336015552273	1.46705274836
3	470	639.314326209207	2.330764463682
3	478	646.423572892265	0.136729297447
3	480	650.90778482259	7.432462334269
3	485	661.219072739543	1.581627286323
3	490	674.110277800661	2.000870644516
3	495	688.47053003119	6.191089855406
3	500	700.251086649326	0.25640532173
3	508	708.039927666197	5.467462781921
3	516	718.307880875343	1.799746266057
3	521	721.309185456687	3.270489658753
3	523	725.088612061638	21.131948799197
3	525	725.950083466161	5.903140017527
3	530	735.805107133392	4.060027652018
3	538	749.399705075022	9.007855029876
3	540	750.955135947009	3.564668507972
3	548	763.820459120189	1.433333600304
3	553	770.334359778372	12.042248910333
3	561	774.4925550192	2.796623210447
3	563	774.982335995202	5.669753868712
3	565	775.504461169026	4.572774720817
3	570	790.950297903916	1.283202066464
3	578	794.346997444191	1.185746308348
3	583	803.672514480916	9.759278663027
3	585	805.214623107624	3.308908841383
3	599	813.912064235706	5.826523473993
3	607	819.072915493803	13.606607252287
3	612	822.878469546453	15.992660197665
3	614	823.053853158928	15.795464797554
3	616	823.650106369403	9.507506048914
3	618	823.890308654121	7.4791397534
3	620	827.76293103852	8.054588342813
3	625	831.519365859333	1.712208430598
3	630	841.706414271021	4.314673716592
3	635	845.445476471991	3.331342763422
3	640	860.373374896649	3.172004354863
3	645	874.957139787946	3.59739058348
3	653	879.027677726362	0.580896161255
3	655	879.38278086379	0.694024653962
3	663	894.224515888199	2.776492557292
3	665	897.211601415503	6.013399656112
3	673	903.92240239234	1.735884767005
3	675	910.380139537643	9.019619232668
3	680	916.229835648349	3.18925208381
3	685	922.917582377621	5.050743821347
3	690	939.39313035846	7.869602112591
3	695	946.991002801499	1.42998540404
3	703	961.232745151002	3.119899418549
3	705	965.799949653596	13.226683087619
3	710	974.83691767393	1.65599269372
3	715	976.483457644788	1.547931063413
3	720	980.092531831072	1.863559521037
3	725	987.106338416772	1.33257333401
3	739	1009.663428578571	0.652877926932
3	741	1010.713547984724	9.036269134275
3	743	1011.027449224329	1.618047800673
3	748	1013.501377496464	1.234248508545
3	756	1017.295857084611	0.174182990828
3	758	1018.983502983047	1.83751345779
3	763	1025.847909365442	20.036423667129
3	765	1026.361802268955	3.318540795855
3	773	1038.339553738669	11.707784825086
3	781	1046.198663367029	5.174819534158
3	783	1047.124499806325	14.331696379227
3	788	1050.434363996262	7.655423942117
3	793	1057.179967477968	6.836243333697
3	798	1062.625500960764	8.16455323132
3	800	1062.722257627283	5.389380130973
3	805	1069.652605753017	0.47484745775
3	810	1086.561784560018	0.359693186738
3	815	1088.976292682989	0.901273073271
3	820	1100.839206730103	10.191784634473
3	828	1105.812858800499	2.241194111554
3	833	1107.364640245112	2.735927985049
3	835	1108.737128278758	1.520284020717
3	840	1116.882248979274	4.318499628152
3	845	1123.92553700873	0.275437058714
3	859	1169.515301192583	2.73389837429
3	864	1170.661088664696	8.248152245702
3	869	1181.125611426381	23.455818424688
3	877	1186.281866337648	2.995729648492
3	879	1187.978731052966	23.212770926985
3	881	1188.197055490887	1.968432093882
3	883	1188.98685096662	18.334339487032
3	885	1189.832623754209	16.937431920038
3	890	1195.302360643543	1.439172250086
3	898	1207.249675269294	0.264415389584
3	903	1210.00334567108	4.793664209147
3	905	1211.408388398196	2.843637680838
3	910	1216.842121003014	2.247794297054
3	918	1229.170052781448	0.433008799454
3	920	1230.062414410582	1.031833268471
3	925	1239.750465541296	7.535608239496
3	930	1255.558557137765	8.385857249002
3	941	1262.31662852164	2.858079337536
3	943	1264.039999793165	4.974992697164
3	945	1265.193843170706	3.542881831206
3	956	1274.502823465601	1.524197510906
3	958	1275.992712499148	8.900564977277
3	960	1279.084137667801	4.99470227465
3	965	1284.124217846724	4.922035185813
3	970	1288.973879969281	1.907173072948
3	981	1303.11178439039	13.207498784457
3	989	1314.43056847142	12.698168081569
3	991	1315.649527889672	5.765984666113
3	999	1322.312220404361	9.513946529668
3	1001	1323.567706392233	4.925328653969
3	1003	1323.698048318485	2.719673221997
3	1005	1328.839753711997	27.10431334881
3	1010	1341.717189529761	4.445145145588
3	1018	1349.110638348294	3.701870141251
3	1020	1356.488125304049	8.949013936015
3	1025	1365.47968044088	1.123007838565
3	1030	1374.342961835832	4.34865780937
3	1035	1390.344897083911	0.037098906463
3	1043	1404.97621287327	7.373242426973
3	1051	1410.968048444112	5.668007573693
3	1053	1412.364654076382	5.34041277553
3	1055	1413.665398773453	15.223902475273
3	1063	1424.188284917262	7.678115418496
3	1071	1443.020854721012	0.45367819177
3	1073	1444.176900135361	20.845553616356
3	1078	1456.808954155502	31.741388203518
3	1080	1458.741186164247	11.367603349965
3	1088	1467.703600457736	4.030309449394
3	1090	1468.19010235287	3.919782804284
3	1095	1477.208040410917	6.168987868469
3	1100	1486.824905690951	2.486230748023
3	1111	1494.87587247314	5.416728759419
3	1113	1495.105243871242	5.343978837663
3	1115	1495.455382758649	5.634780559179
3	1123	1506.432962524973	1.063124422946
3	1131	1512.050005776704	1.541964790078
3	1133	1512.613084323156	1.607112864772
3	1138	1514.177876362173	11.099652243141
3	1140	1514.958254034368	1.3558975402
3	1148	1530.593498223014	2.109413729824
3	1150	1531.165890900553	2.730292982089
3	1155	1544.635265995792	2.605440734515
3	1163	1550.141769483794	2.11653363376
3	1165	1556.247642574756	8.553430114511
3	1170	1566.869824342127	0.318420386934
3	1175	1581.035476296908	8.311909977469
3	1183	1589.792917291504	7.055866304601
3	1185	1592.461734377994	7.059885762698
3	1190	1595.768210943929	1.702639812779
3	1195	1607.03336515283	1.849816072742
3	1200	1614.694319196432	0.421115423439
3	1205	1634.065003154803	5.690232322297
3	1216	1636.649137674975	0.871730877619
3	1218	1636.853486685991	0.602692650693
3	1220	1637.020204567664	0.405363149258
3	1225	1660.853622880933	0.165945468804
3	1233	1672.932882035889	11.750990409456
3	1235	1676.30631202332	12.122820092327
3	1243	1682.521176504012	5.134244797731
3	1251	1695.776550084498	13.814933465141
3	1256	1698.819772109883	9.63204434073
3	1258	1699.542283403075	8.233535901723
3	1260	1699.695040165301	3.193134269659
3	1265	1708.083209193734	4.428003907433
3	1270	1718.94181023367	0.854125277696
3	1275	1728.549714081807	2.802231766574
3	1289	1730.725336990258	0.842840727964
3	1294	1735.530778073543	5.796491003281
3	1296	1737.481594185796	8.845288341096
3	1304	1746.467421009528	1.691823480715
3	1306	1746.892444536517	16.512376021063
3	1308	1748.623378284363	13.830644549595
3	1310	1750.35153885655	4.372832362959
3	1318	1759.16694566931	5.283471769422
3	1323	1762.949353512174	5.141139572112
3	1325	1765.649273422371	2.872741243772
3	1330	1773.510092188264	1.239963612673
3	1338	1777.312242938154	1.759332109255
3	1340	1780.130141616573	4.561851142111
3	1345	1782.934354272689	0.765180940148
3	1356	1786.80863864138	2.811696477193
3	1358	1790.392833865308	4.932691819889
3	1360	1791.081182926608	7.982227513216
3	1368	1797.127148877025	0.712815674233
3	1370	1799.766218522042	6.709173221942
3	1381	1808.270228107632	0.118356524674
3	1386	1814.555344540294	0.633446340669
3	1388	1819.406121963893	14.730050929593
3	1393	1822.295924038023	18.383500799119
3	1395	1826.009410251564	5.114766504911
3	1403	1837.540818725348	11.275565411543
3	1405	1840.645151748034	6.986674715025
3	1410	1854.171690990517	3.882585439905
3	1415	1859.33057958799	3.167354751143
3	1420	1876.538813780838	4.363492072002
3	1425	1883.752310107051	0.634100829432
3	1430	1895.934856564975	9.192115871569
3	1438	1905.934591702249	0.50030947268
3	1443	1915.668983911637	3.571507554708
3	1445	1916.304273605772	20.22382070469
3	1450	1918.542629886304	0.116510112392
3	1455	1921.074908404573	0.247551696587
3	1463	1943.715371203165	9.002901775282
3	1468	1951.765218589303	2.362382714197
3	1476	1966.677268962728	1.977159879052
3	1481	1969.223974764064	29.85977101655
3	1486	1979.521731662544	14.568153565585
3	1488	1985.715734362447	17.798824305612
3	1490	1987.755489036268	14.838866467015
3	1495	1992.380480263894	0.851979140681
3	1500	2001.741898224649	0.9456718343
3	1505	2002.891766848717	0.244694982668
3	1510	2018.577159614779	2.834478825416
3	1536	2037.693082377731	12.299988816893
3	1538	2037.740529852644	10.602984575387
3	1540	2039.959252943583	4.575127410455
3	1545	2045.046175421085	26.306514025581
3	1553	2049.910405010304	26.651203369467
3	1555	2052.525820497864	5.152908159405
3	1557	2053.326363925537	24.574635275897
3	1559	2055.932139125539	15.547046951853
3	1561	2056.340425690796	22.640113109885
3	1563	2059.218999786549	23.803206186122
3	1571	2065.544918302751	3.053874076838
3	1573	2069.687048269722	6.348899396362
3	1578	2079.698362631108	32.582657963054
3	1586	2088.33744307924	3.015458770019
3	1591	2094.660905570346	6.45986730544
3	1605	2112.173489904018	2.721172194323
3	1607	2112.775053832663	41.865074171439
3	1609	2115.418968600876	25.266871312521
3	1614	2120.172335194892	13.792025300166
3	1616	2121.215286478288	24.090988917965
3	1624	2133.59857916748	0.921622400973
3	1626	2133.775903452051	29.243705680564
3	1628	2145.375230487573	27.17414323208
3	1630	2146.232648872037	16.746304226088
3	1635	2162.431186357859	5.324743110729
3	1640	2167.604831641679	0.406531179318
3	1657	2182.880354724025	3.535139309804
3	1662	2185.480462111675	9.730686481234
3	1670	2187.888840875922	14.062967540102
3	1672	2188.176615692088	4.65804849999
3	1677	2190.002715709012	10.066299785307
3	1685	2190.992541862949	4.685382381571
3	1687	2191.449042875385	4.199232803042
3	1692	2198.403708937476	1.754936947885
3	1694	2198.746502120578	16.919667622548
3	1699	2204.372794369167	15.468490694103
3	1701	2208.832745013339	18.623346299394
3	1703	2209.299639700277	18.392190200316
3	1705	2210.918396042079	10.39133075307
3	1710	2215.344318436298	2.489270230473
3	1715	2224.39629130077	3.292428396932
3	1723	2229.009625363453	1.565651709197
3	1728	2237.271152539382	8.738011874798
3	1736	2243.588499616608	7.783804220147
3	1738	2243.701292951087	0.609109491567
3	1740	2244.583631179315	2.025009131282
3	1748	2248.307188645578	1.885325419584
3	1756	2252.23515087287	3.511159081558
3	1758	2252.630682444909	0.60031121606
3	1763	2260.526883185926	12.56636408813
3	1765	2261.80001473859	1.676903206136
3	1773	2289.282023327528	21.167598745018
3	1778	2291.747938014175	9.971216002021
3	1783	2296.070181088386	1.278046140039
3	1785	2297.896087285323	6.722490380292
3	1790	2308.180886926877	2.333143413096
3	1795	2333.811283353064	2.102506963036
3	1803	2353.045010750803	8.876993396541
3	1805	2356.185829205417	3.791901119593
3	1813	2361.957560186946	0.781860644939
3	1815	2365.65484231939	5.287594981228
3	1820	2368.993113798333	1.292209461794
3	1828	2379.466425087091	7.04457352067
3	1830	2384.564076757876	10.49772410071
3	1838	2394.100990911433	4.593534599791
3	1840	2401.483055351365	8.406093861192
3	1845	2402.180398690285	0.639350449114
3	1853	2408.266563693126	1.177104926336
3	1855	2415.161282019152	7.226211203372
3	1860	2419.9627223487	2.705190381064
3	1865	2425.357583677694	4.30741395317
3	1870	2427.265053273039	1.062388315085
3	1878	2440.111794939856	2.805035934282
3	1880	2440.45435617217	3.85571456739
3	1888	2453.026204120724	7.927599089117
3	1902	2463.654124104336	17.468206316209
3	1904	2466.807330639314	13.485242791427
3	1909	2467.947268269496	0.916755111541
3	1911	2471.19321125915	13.191701224225
3	1916	2476.643111380737	14.427724148636
3	1918	2476.706656636821	13.10687170834
3	1920	2480.411769785577	5.101255410953
3	1931	2493.817360754511	5.05319558756
3	1933	2494.47078190887	4.505414952987
3	1938	2502.142810610141	12.042664084172
3	1949	2517.204471575525	16.548913468793
3	1951	2517.345470678487	13.279620631206
3	1953	2518.504777848396	6.975355786461
3	1958	2525.617244605509	3.202116009479
3	1960	2528.06138144122	15.375622005741
3	1968	2530.899177343425	1.47478104637
3	1970	2532.466348041811	3.541770254708
3	1975	2533.865392148179	0.58460952568
3	1980	2540.085490438342	2.030901008498
3	1985	2545.201623294835	3.581803840925
3	1990	2560.426211356827	3.250320065049
3	1998	2563.846567926069	1.767912012559
3	2006	2571.715992340639	7.864898030915
3	2011	2574.304395641485	1.091276948201
3	2025	2579.528103244038	16.401415840515
3	2027	2580.617763022599	10.09261168436
3	2029	2581.044196189681	6.521471200417
3	2031	2581.085253046773	3.832853184085
3	2033	2587.019157133163	8.772162180872
3	2035	2587.280663046161	9.928056516332
3	2040	2607.067125311308	3.36418957476
3	2057	2615.524594946727	2.104314607726
3	2062	2621.383321060185	1.093060057489
3	2064	2622.255822959093	13.633408643524
3	2066	2635.238081116642	23.818887357152
3	2068	2638.167451523386	26.112961528907
3	2070	2641.735371823085	28.455372075648
3	2075	2649.910865654771	3.948047533278
3	2080	2656.631387275799	2.354545093913
3	2085	2668.068108984941	2.606185354104
3	2093	2685.429022919549	0.622793295968
3	2098	2689.22601874859	7.306929329224
3	2103	2697.985743770878	4.837138642811
3	2105	2699.737389274779	14.169476811897
3	2110	2702.579401180824	2.242673548143
3	2115	2711.2410249475	8.04588218618
3	2120	2720.681519772205	4.656971745238
3	2128	2730.014356932355	8.787758290253
3	2133	2733.067369775741	9.955898389967
3	2141	2734.661794116295	2.754855458458
3	2143	2737.137873194752	3.465478471914
3	2145	2747.124047745554	12.857959710014
3	2153	2764.36169733891	2.538472525252
3	2155	2765.63390216579	6.989509472026
3	2169	2789.632399125075	2.950420526904
3	2177	2794.266165227424	5.622364181304
3	2179	2795.283281647488	2.693029588124
3	2184	2800.110295541621	21.103917890695
3	2192	2811.376634938242	4.990159345766
3	2200	2819.225744957005	33.677256421227
3	2202	2819.345965912239	0.6631029289
3	2210	2820.753365743854	0.397484109208
3	2212	2821.167311316841	30.563538535091
3	2214	2825.325019409986	26.68032579787
3	2222	2827.806060944253	0.273263422922
3	2224	2827.911053317488	23.550446313118
3	2226	2830.137393914542	4.136655298025
3	2231	2832.671479986929	0.121778626758
3	2233	2837.4846519708	21.782785838059
3	2235	2839.287905962176	19.206481540221
3	2243	2844.65684132854	3.89606485646
3	2245	2848.42935218854	8.441605846718
3	2250	2855.014759137457	3.031948258673
3	2258	2861.83688674257	0.925705107493
3	2263	2871.624195236147	12.145807329321
3	2274	2878.668363063405	3.859915178396
3	2276	2880.048531639556	16.298348351929
3	2278	2883.466559417208	7.463464016906
3	2283	2887.273054769658	8.96326094751
3	2285	2887.579523301425	3.348119254983
3	2290	2893.68922554655	1.177674610872
3	2295	2908.537700318732	7.842350981117
3	2303	2920.128152229434	0.850872252208
3	2305	2930.996068963293	12.201560221939
3	2310	2950.937503960283	13.329759278027
3	2318	2964.029433761425	6.991563861786
3	2326	2973.541114544836	9.826980928379
3	2328	2975.401646889242	7.336342230918
3	2336	2982.258752405082	1.878771241647
3	2341	2985.866296111483	15.987673703712
3	2343	2987.649957116461	3.952449980458
3	2345	2992.318990753416	12.651916251588
3	2350	3002.747512974078	2.890194501299
3	2358	3008.113368352391	4.532789283094
3	2366	3010.95788319607	1.929744495577
3	2368	3012.07915193645	5.426279630614
3	2379	3019.078252876217	3.193504283476
3	2381	3024.568500638388	16.387242431416
3	2389	3037.609480501704	19.848418742076
3	2400	3043.599341289353	1.067967688853
3	2402	3043.740519758891	10.202837146043
3	2410	3045.991325593595	0.774726304451
3	2412	3047.768455487819	9.515651411378
3	2414	3049.178364824507	31.04081593814
3	2416	3049.586288616518	13.946409208164
3	2427	3060.10192301154	17.182279672119
3	2429	3061.39153044586	16.780814502151
3	2437	3069.978559257042	1.846341880511
3	2439	3072.684129939945	19.06238339507
3	2441	3074.747257576602	18.784017460862
3	2446	3075.247971266361	17.23790523646
3	2451	3079.776126165274	11.074919633644
3	2453	3081.449378036567	6.484224158626
3	2467	3087.903310915767	4.953744106392
3	2469	3091.522718822955	12.969637878543
3	2471	3092.419750549546	10.484614857541
3	2479	3101.380108343673	2.486142147627
3	2481	3101.637438598633	19.361198053983
3	2483	3109.030879947936	22.984389228286
3	2491	3115.439949095431	17.746526867022
3	2496	3118.966586118148	3.15667031125
3	2498	3119.784085821497	8.222354858077
3	2500	3121.337658915597	7.289043192233
3	2508	3124.685739433788	2.191010786633
3	2510	3124.783371398702	2.054358243322
3	2515	3131.47683994935	5.224819276317
3	2520	3140.085482348835	5.087981623066
3	2528	3147.620904359676	3.011523574478
3	2530	3150.01878523131	3.517311355029
3	2535	3153.656211329539	1.961766829792
3	2540	3165.128021885364	0.356889703999
3	2545	3173.840199088352	2.437189128307
3	2553	3188.938423170779	13.287359532123
3	2555	3189.487790932751	11.341882239831
3	2563	3204.357049492422	7.590401154143
3	2565	3207.794901989614	7.175343676231
3	2573	3213.627918282612	0.281364105658
3	2578	3218.878496386756	0.365805613163
3	2580	3224.361372147718	14.079933447563
3	2591	3236.020755296449	0.765069550466
3	2593	3236.304388590704	3.657835777813
3	2595	3236.455908849238	0.525625977054
3	2600	3250.307845802403	13.466506060763
3	2605	3252.699712800815	0.827828462079
3	2616	3259.761933969497	6.867854533484
3	2618	3260.247887884381	5.920200218636
3	2623	3265.60221080026	10.92648192058
3	2625	3267.69190724615	3.658298724283
3	2633	3272.354879106871	0.801295988846
3	2635	3273.160750437167	2.743104273841
3	2643	3286.542457370101	4.462212898926
3	2645	3294.527652840515	13.77814853916
3	2650	3299.205554626849	0.421842314854
3	2658	3304.972131696279	0.41405567161
3	2660	3307.575202193409	4.96148638863
3	2674	3324.971984671097	0.140810810451
3	2682	3327.691694047288	17.69404633153
3	2690	3330.366026004933	18.931453316371
3	2692	3330.829652243135	4.075079434041
3	2694	3331.689452158396	8.356808782488
3	2699	3335.063556704355	7.089487403026
3	2701	3335.381874881902	8.451716967306
3	2703	3335.755327641199	7.76287793949
3	2705	3339.942168887149	6.256110128566
3	2710	3346.895697029295	1.455747605874
3	2715	3376.022668592149	3.078658403871
3	2726	3382.086273206787	2.914674452408
3	2728	3384.054022167813	4.362637170105
3	2730	3389.076451216947	9.03222872938
3	2735	3391.769170634048	0.337609383876
3	2746	3407.187653743526	3.07503096212
3	2748	3407.948978750885	14.639970768124
3	2753	3409.298995721169	0.086637664513
3	2761	3414.413576528886	0.430433442567
3	2769	3422.954456912171	20.031422543233
3	2771	3423.389725315495	12.771415585968
3	2773	3426.152562288505	10.693421724372
3	2775	3427.628794726345	11.416480033296
3	2780	3455.499742932222	11.317742301926
3	2785	3461.160055532637	3.805051276678
3	2793	3462.983921588335	1.30641406328
3	2804	3472.088373813432	9.379834833221
3	2806	3472.171036605458	5.084042499028
3	2811	3476.201515665691	9.949193465923
3	2813	3476.258249633562	5.776380095069
3	2815	3479.048628484626	3.973085877034
3	2823	3489.769920121462	7.314661194431
3	2825	3492.894089205737	7.76758653116
3	2833	3501.804398963623	4.036115577822
3	2835	3502.175386402374	2.903121987775
3	2849	3517.520325147143	14.089175906747
3	2851	3519.531772172518	10.846721284558
3	2853	3521.732983439746	5.244667029614
3	2855	3523.045327670415	10.829769045118
3	2860	3530.731758750489	5.40355691067
3	2868	3539.593309321151	0.716876886401
3	2870	3540.639932297483	4.323038076721
3	2887	3552.785625316457	10.315664433122
3	2889	3557.306528893706	9.35623515955
3	2897	3559.789241691358	9.655399952743
3	2899	3559.879145837551	10.164281171509
3	2904	3562.578808397974	13.939571820937
3	2909	3564.454005952794	4.935674249358
3	2914	3566.958787120995	6.331622257168
3	2919	3573.493671232588	15.979008747558
3	2921	3575.189116784179	12.173441607746
3	2923	3577.862855822228	11.569818388766
3	2925	3580.179930478801	12.759708925993
3	2933	3587.680086890803	4.074338094505
3	2941	3592.524897631252	12.339264590675
3	2949	3599.750469437536	12.039746821532
3	2951	3601.671516501234	8.86505929947
3	2956	3604.20462922435	16.303821128393
3	2958	3605.173350562606	11.481372267642
3	2960	3606.866493001709	4.404899520888
3	2965	3609.168869756694	0.775992866328
3	2970	3616.462309231084	2.826235102247
3	2978	3633.420183528627	8.371133720288
3	2980	3635.345744767401	1.9479029068
3	2985	3649.139024566119	0.405753493433
3	2993	3663.733941995382	6.154148361669
3	2995	3667.448347936545	4.316630354164
3	3000	3686.506954786559	0.517436411761
3	3005	3694.044844249594	4.9812126892
3	3010	3697.769374527554	0.741790864766
3	3018	3707.241404519219	2.48698106414
3	3020	3707.655059983793	1.590211180171
3	3025	3709.032413938992	0.131904300918
3	3030	3716.368514920002	1.752394572202
3	3035	3718.105013934068	1.102565078617
3	3040	3718.279731056095	0.156055686338
3	3045	3734.385964450743	4.289213732641
3	3050	3741.552659152474	5.507844527052
3	3058	3754.909916754929	2.899740105007
3	3066	3760.767493095383	1.996642393557
3	3071	3769.137494706237	0.644856472591
3	3073	3769.881257843686	20.527310314395
3	3075	3770.745798829658	14.16686358227
3	3089	3791.300777500501	18.176877498864
3	3091	3794.501134796493	9.546896529783
3	3099	3797.951405108462	7.579104708801
3	3101	3800.596262744582	5.744131639522
3	3103	3803.220761716874	14.21154601984
3	3105	3810.768805085381	16.239153324859
3	3110	3819.48370516284	3.133994846437
3	3121	3847.033698787169	17.395232477896
3	3123	3851.021722166012	13.080708117384
3	3125	3852.418090075919	10.991073877828
3	3136	3862.412502031068	8.874843246842
3	3138	3862.565514824686	6.734083904611
3	3143	3868.599206180172	7.734513710692
3	3145	3873.76621148884	9.737082443946
3	3156	3885.196453218138	3.414068135485
3	3158	3887.111096965584	10.743891745273
3	3166	3898.71625172653	19.511166646603
3	3171	3903.17740356956	5.906459209841
3	3173	3905.122731960107	6.011997010775
3	3175	3913.468978473998	22.52906386356
3	3183	3936.544476903509	5.574575135045
3	3185	3937.536199245914	5.063589848705
3	3190	3938.913351196927	0.719485979647
3	3195	3949.759382998305	2.764432201698
3	3209	3967.413738683978	1.090731080249
3	3214	3969.173494462565	0.196592907605
3	3219	3970.721173814678	13.928390045763
3	3224	3974.576139823014	3.992340644938
3	3229	3977.644508323121	18.195084426171
3	3234	3980.124006344982	3.298450678587
3	3245	3993.427307533652	31.31632892965
3	3247	3997.906631309626	6.831447661849
3	3249	4001.56390875367	28.510073747749
3	3254	4007.517195773747	29.409598566238
3	3256	4015.869946163835	11.263959587742
3	3258	4016.573950269895	31.191403533253
3	3260	4018.598814946479	29.879654043154
3	3265	4027.005548606052	2.869875939827
3	3279	4037.946538367694	6.155171563472
3	3281	4038.461961903025	6.43799478123
3	3289	4045.687574597844	12.403588270623
3	3291	4046.05704962203	6.517271838859
3	3296	4051.477570957491	11.287523031171
3	3301	4054.198628505927	3.970356576695
3	3309	4063.9854187009	9.29326749957
3	3320	4073.614577858275	17.966511067501
3	3325	4077.602660497727	6.669488331801
3	3330	4091.932407286438	0.844437471401
3	3332	4102.606660777871	64.682067138422
3	3334	4104.132094750981	52.256609695255
3	3336	4105.037636037634	40.50841504402
3	3338	4105.823732122732	34.908802854504
3	3340	4107.463833102796	31.381229832148
3	3345	4141.338195194124	5.786242296958
3	3350	4160.539014872256	8.02655083744
3	3355	4161.008955861861	0.058713075641
3	3366	4187.784600718538	1.123849232695
3	3368	4188.275602237496	6.377669798111
3	3370	4189.656868237996	3.80333452731
3	3375	4197.23249166463	1.304062572992
3	3380	4197.752668598849	0.374235305391
3	3388	4208.036559946307	2.081963884218
3	3393	4211.594612173253	2.531906533985
3	3395	4212.037648877099	5.280565967089
3	3400	4237.07284791289	12.300867150094
3	3405	4244.319270120641	0.305957844301
3	3410	4252.661099766431	7.99739805324
3	3427	4261.632764861494	5.188291428847
3	3429	4263.378311463759	5.637611387522
3	3431	4264.668117363593	8.122690723528
3	3439	4266.052395807073	4.437400588976
3	3444	4266.439308324785	0.944512026548
3	3446	4267.211399466395	1.90313372288
3	3448	4270.378488556583	4.225308189452
3	3450	4284.850124242257	26.14647259666
3	3458	4298.535992296795	4.279583979024
3	3466	4304.822242747277	3.455746426525
3	3468	4305.01714128308	4.254867170003
3	3470	4305.958438712118	11.242467521758
3	3481	4325.31138773381	1.574571456035
3	3483	4326.501949096548	19.384559270574
3	3488	4327.97141978454	0.463058498117
3	3490	4328.045804516789	20.869469039015
3	3501	4344.313787057871	0.089375653571
3	3503	4345.561842140637	7.788114073358
3	3505	4345.779863184946	2.725949991824
3	3510	4367.901104383443	2.396754852968
3	3518	4390.775736673326	13.246209136403
3	3520	4396.502498890382	7.58753060793
3	3528	4406.719670542982	4.707403922034
3	3530	4407.017838617114	0.83139961213
3	3535	4410.622053597692	1.821812944186
3	3540	4418.776202043613	1.851705494348
3	3545	4425.916206248209	3.580779671827
3	3550	4430.598207680986	0.479070677074
3	3570	4443.816666653125	2.052399765542
3	3575	4444.411071334372	1.881170806707
3	3589	4460.629769687695	22.843738572353
3	3591	4462.577735948909	11.929396760731
3	3593	4464.198952263434	25.836384261916
3	3598	4466.298323974448	0.828360716657
3	3600	4467.714944076686	29.004969819642
3	3602	4473.403113883331	33.051583623313
3	3607	4475.473514929463	1.653307901619
3	3609	4476.604660926297	32.22991860197
3	3617	4481.547204237692	30.913470069842
3	3619	4487.183352145356	30.718261563182
3	3624	4490.053039237689	10.752239739145
3	3626	4490.581061991271	1.891637730183
3	3628	4491.663925802674	10.897108134616
3	3636	4495.533151594255	35.455270685059
3	3638	4496.504525201035	3.494206618189
3	3640	4499.412066214552	4.14210365059
3	3648	4506.942493048293	5.76776428361
3	3653	4510.085977605103	0.816677575252
3	3655	4510.464285904325	4.775820813571
3	3663	4516.194342893189	3.388383081897
3	3668	4519.77256710778	8.796341164602
3	3670	4520.333925205414	0.867095776831
3	3675	4534.757661092785	1.626185247898
3	3680	4541.542202224184	4.198670933557
3	3688	4548.426426101458	0.31331435095
3	3693	4550.497876947577	2.082699590653
3	3695	4555.885070954871	5.550957882226
3	3703	4563.773970351786	0.494287643455
3	3708	4577.60817947715	4.764191374527
3	3710	4578.744946240928	17.810353064328
3	3721	4596.068163997724	6.687361102551
3	3723	4597.827396778185	6.253974619999
3	3731	4604.418907955435	8.566197943646
3	3736	4616.904853230272	17.632322064533
3	3738	4619.722701349915	15.331978647244
3	3746	4629.00420417734	17.020230234265
3	3748	4630.289805893507	8.321307235218
3	3750	4630.367427104418	2.845482603323
3	3758	4640.276383577551	3.207187261477
3	3763	4646.439714481805	1.068747413362
3	3765	4648.478625811586	10.504299092053
3	3773	4670.654099084598	9.324613568552
3	3775	4677.031324846855	8.858692736046
3	3783	4690.697262693192	3.908400451203
3	3788	4690.905075051048	3.738461292861
3	3790	4693.267235176962	2.392358663278
3	3798	4701.991689647284	8.447149062007
3	3800	4702.088661998822	0.174037853305
3	3808	4705.669628796765	0.196141356362
3	3822	4713.089890832937	9.423318845424
3	3824	4713.097884900418	4.763034579141
3	3826	4715.040756399876	3.260294223263
3	3831	4723.20045108578	17.18322452659
3	3833	4724.856982743785	2.805839906901
3	3835	4725.841513282676	17.965112277968
3	3843	4738.741434869017	2.012693528942
3	3845	4743.944928280454	6.470915616664
3	3853	4750.73309422191	2.519510323818
3	3855	4751.06406712757	5.105731039448
3	3860	4753.233709618991	0.274943975637
3	3865	4778.784950780824	3.945783836393
3	3870	4789.973606743648	8.430128232368
3	3878	4796.198485112763	2.628896270029
3	3880	4796.224650965635	3.144772764943
3	3888	4819.857198962128	16.117028922896
3	3902	4826.533414608452	5.225377607739
3	3904	4830.468086357082	4.540748122174
3	3906	4830.741930105511	4.33734918356
3	3908	4832.01622185154	5.845574859877
3	3910	4835.43662670645	20.932961238325
3	3915	4844.261850966715	1.048993713422
3	3923	4858.450514469903	11.317187711813
3	3928	4863.940291071245	2.732189156988
3	3930	4863.965065436886	6.312788343072
3	3935	4866.482831005391	2.031915995147
3	3940	4881.895640887905	0.374918219528
3	3945	4885.062307280015	0.501785594699
3	3956	4897.700614207939	7.081940839221
3	3958	4903.326409920963	6.946786786201
3	3960	4907.811264215901	11.249516775093
3	3965	4918.020516325833	2.154131500459
3	3970	4940.149534692822	2.379092237166
3	3978	4949.465319537631	2.606505815788
3	3983	4959.183667062148	10.045324452355
3	3988	4963.493786452953	11.535416033018
3	3996	4964.79886140773	2.56829274687
3	3998	4964.957650658786	1.340767145383
3	4000	4964.966021400416	1.331126280167
3	4008	4982.035758152276	5.711632090937
3	4013	4984.743866626518	10.879675738011
3	4018	4988.101158208224	3.586337815957
3	4020	4992.912827669115	6.391816083976
3	4025	5002.859974279196	1.302541997643
3	4030	5014.618529129024	5.725304788931
3	4038	5034.884898909753	2.260875475943
3	4043	5036.183823436545	1.621355063467
3	4048	5042.965573397619	7.509964179514
3	4050	5043.361842861089	3.086899650403
3	4058	5047.42112839731	2.642915188892
3	4060	5048.259081706256	4.137422858728
3	4065	5066.299075964311	2.341288626822
3	4070	5078.435701890685	3.653919045179
3	4081	5099.400857601925	4.357392858241
3	4086	5102.917621198227	7.872928981461
3	4088	5104.767734083268	2.760790826106
3	4090	5107.591458624181	10.728338067559
3	4095	5117.750596150469	1.459442675645
3	4100	5120.046011890907	2.193825203806
3	4105	5123.198637949585	2.840579119716
3	4110	5125.581739942751	0.507164428454
3	4121	5153.797670059095	6.400368179056
3	4126	5155.714380319973	10.269797838421
3	4128	5156.27884422894	0.589906500874
3	4136	5159.020266908895	17.699737809717
3	4138	5162.777796630938	6.014698790651
3	4140	5166.209293549802	7.59250574063
3	4145	5167.987092710082	0.087566850906
3	4150	5172.793033030701	2.020731439651
3	4155	5175.450407727407	0.071597396894
3	4160	5188.315283026751	6.506087509198
3	4168	5194.46377318059	1.858174567237
3	4170	5199.296568902323	5.037657388727
3	4175	5211.670373034781	0.623595520768
3	4180	5236.88080946841	0.38741126173
3	4185	5240.541597414958	1.608815076429
3	4193	5254.53369965303	3.515923207169
3	4198	5260.024310632981	4.415514763425
3	4200	5264.395211250695	13.074228139622
3	4205	5270.218599488597	0.745897962199
3	4213	5274.64734569123	3.090267997305
3	4218	5275.015300744355	1.671375664147
3	4229	5280.348850127584	0.547831523547
3	4231	5283.049511926704	8.173643071738
3	4233	5284.657447543032	7.914476394114
3	4241	5292.296240207187	2.764084879902
3	4243	5296.600421606771	18.664487867589
3	4245	5300.491215594596	13.405230972703
3	4253	5307.628051393082	3.791360620333
3	4255	5314.708780014994	8.418121477384
3	4260	5320.751850440407	3.705894706495
3	4265	5322.349062007133	0.082045367927
3	4270	5323.1876815178	0.393640737597
3	4284	5333.033896309237	5.935502194403
3	4286	5334.118296892569	5.680252929189
3	4288	5334.290999189661	5.035809125783
3	4290	5334.933598609909	5.508878292735
3	4298	5348.197573061886	6.384716596461
3	4300	5350.045393973576	6.724275119028
3	4311	5365.393948105888	4.915073721183
3	4313	5373.779455443173	13.028826013302
3	4315	5374.167272701557	9.434980119628
3	4323	5392.683271040871	12.991763836202
3	4328	5394.51558707571	1.081274165901
3	4333	5397.395993204171	17.356856847922
3	4338	5398.025762690501	0.313128598432
3	4343	5401.252931147632	4.193661542397
3	4345	5401.601063679119	1.848141709318
3	4353	5407.242592429714	1.668905415381
3	4358	5413.589274833431	8.088746990872
3	4363	5416.478143991136	0.385296585657
3	4365	5422.041996570569	12.62327648061
3	4370	5425.60712737063	0.720524672824
3	4375	5427.630163705762	0.247084260485
3	4392	5456.808539129564	7.934076421273
3	4397	5460.737988238584	11.93465775075
3	4399	5464.515363385423	15.32390959739
3	4401	5470.083861864656	13.717202381602
3	4409	5475.479339219582	19.691985346891
3	4411	5477.023845943441	19.347056458737
3	4413	5480.411035519009	8.525515442989
3	4418	5486.17963633102	4.448747951907
3	4426	5497.430650885603	6.037255004016
3	4434	5502.845081540405	0.222941430819
3	4442	5507.711417915606	1.15328488089
3	4444	5507.895519025701	5.228629035238
3	4446	5509.853075704077	38.51880654811
3	4448	5513.948721332972	17.437922214447
3	4450	5516.012892280023	10.166257599665
3	4455	5531.261755467288	0.737327364794
3	4460	5537.754590336987	0.377550990628
3	4465	5538.089475602188	0.124503615381
3	4473	5541.315043648951	2.289407759624
3	4478	5542.971200351293	2.422560535991
3	4483	5547.170147699744	2.205723832171
3	4488	5556.136692456345	14.228856491265
3	4490	5556.190879230149	5.168029705932
3	4498	5572.243865173492	11.761868940694
3	4500	5575.975709921737	11.805305608198
3	4505	5585.903666259025	2.456017820715
3	4510	5602.855120582964	2.125055351329
3	4515	5612.152633334253	1.888674867623
3	4523	5621.153747348984	8.395069303244
3	4531	5623.122362196304	6.568527653798
3	4533	5625.244089778206	3.787786142277
3	4541	5627.261708383871	4.91583940388
3	4546	5627.695730487298	0.207010120235
3	4548	5629.880368949484	2.720564103609
3	4553	5632.89817322104	7.496722838205
3	4555	5633.712480915895	1.626087660107
3	4560	5648.49769305589	1.080414442254
3	4571	5655.809040774851	6.974071526908
3	4573	5658.632655903142	7.828109777008
3	4575	5658.851147492832	6.620733945688
3	4580	5661.215116039666	1.587108895136
3	4585	5667.958416732372	2.656723617169
3	4599	5684.39252462336	3.368989588257
3	4601	5687.835100645283	6.604377813603
3	4603	5690.84992149002	9.28361187577
3	4605	5693.214259803256	11.374938417407
3	4616	5713.344543107799	1.805345744614
3	4624	5717.712638344161	3.52152615042
3	4626	5717.966641292057	12.386091636817
3	4628	5721.772700973315	5.766051126974
3	4630	5722.600186851573	10.953720704195
3	4635	5723.93969153821	0.572458086428
3	4640	5727.498257415153	1.037567288992
3	4645	5745.326504381068	5.931122790218
3	4653	5756.024729580579	3.256507667718
3	4655	5757.097726255582	1.085241392247
3	4663	5759.646394971311	1.696601182917
3	4668	5768.120460591332	8.536357187249
3	4670	5772.782694556691	5.747746320418
3	4681	5790.389157055583	13.899461076642
3	4683	5795.48765922877	6.584941686448
3	4685	5797.923860590662	8.671463609745
3	4690	5807.899390477227	6.431364660385
3	4701	5820.798746997305	12.235290165041
3	4706	5822.42617508531	0.06303625556
3	4708	5830.879902972646	21.84345860256
3	4716	5841.591663568948	8.983837332056
3	4721	5843.362745764841	5.699327803316
3	4723	5849.941351282525	34.751570298407
3	4725	5853.020883053519	10.887434472782
3	4730	5863.695079382023	4.859504701761
3	4735	5888.077839502499	0.156868065778
3	4740	5891.126198973794	2.310235912595
3	4745	5916.925546384427	4.017039176459
3	4750	5926.221861624293	1.710729687147
3	4761	5938.170983966917	0.611214566794
3	4763	5940.904871130246	8.797892991841
3	4768	5944.66843509106	2.935512845389
3	4770	5958.986237553724	24.926264556983
3	4781	5971.307540768944	6.620616786219
3	4786	5976.709707365974	9.069814607105
3	4788	5979.054269065684	3.63411607444
3	4793	5981.809716299566	12.69857581744
3	4801	5984.460109364136	1.728431635051
3	4806	5990.64876153578	10.596772698769
3	4808	5990.79986599092	7.702490641013
3	4810	5991.969525924802	6.708909696367
3	4821	5996.997224354082	3.694134960576
3	4823	5997.539947234579	3.713273458235
3	4825	6004.68091143544	8.699533948924
3	4830	6019.915820869265	3.100661539316
3	4838	6030.451890701983	1.775329043583
3	4840	6031.40381812311	1.031855891551
3	4851	6049.658384917389	9.047865926759
3	4856	6053.484657056471	12.644388776123
3	4858	6054.48312240916	15.387778408677
3	4860	6057.959998339164	7.666286813987
3	4865	6065.361487050384	2.654544805576
3	4870	6069.95688066367	1.827974720408
3	4875	6072.247975418969	0.518554506603
3	4883	6079.937736168639	2.317618052888
3	4885	6080.391901567577	4.324644810072
3	4890	6082.787789197628	1.586679619953
3	4895	6097.380508069728	1.568783321973
3	4900	6101.819986956945	3.207705411993
3	4914	6125.301843300045	3.1400359731
3	4919	6131.883653126319	17.613566974885
3	4921	6139.529790158545	19.194905088571
3	4935	6149.723550551308	7.972673907725
3	4940	6151.414440910919	0.00294378402
3	4945	6157.164998571498	5.72057021989
3	4947	6159.798581988602	34.578111997925
3	4952	6163.475166086843	35.474740961464
3	4954	6165.372991841044	4.375607494586
3	4956	6165.646294014033	19.931135662738
3	4958	6177.564777327081	31.11768597721
3	4963	6189.964729036503	42.9364794562
3	4965	6191.64336313392	3.470497713241
3	4970	6197.67501921162	1.772507142246
3	4978	6204.45411854774	5.498419706233
3	4983	6207.755755432749	0.533142220561
3	4985	6209.45521517533	8.321474406462
3	4990	6226.423626263201	8.871917152077
3	4995	6228.240072743847	0.595462215097
3	5000	6230.331335176639	0.199609653071
