version 2
run General-5-20170504-11:38:01-84996
attr configname General
attr datetime 20170504-11:38:01
attr experiment General
attr inifile omnetpp.ini
attr iterationvars ""
attr iterationvars2 $repetition=5
attr measurement ""
attr network Toll_road
attr processid 84996
attr repetition 5
attr replication #5
attr resultdir results
attr runnumber 5
attr seedset 5
param **.numBooths 3
param **.queue[*].serviceTime exponential(5.11s)
param **.source.interArrivalTime exponential(5.854s)
param **.source.numJobs 1000

vector 1  Toll_road.queue[1]  jobsProcessed:vector  ETV
attr interpolationmode  none
attr source  queueingTime
attr title  "jobs processed, vector"
vector 0  Toll_road.queue[0]  jobsProcessed:vector  ETV
attr interpolationmode  none
attr source  queueingTime
attr title  "jobs processed, vector"
vector 3  Toll_road.sink  lifeTime:vector  ETV
attr interpolationmode  none
attr title  "lifetime of arrived jobs, vector"
attr unit  s
vector 2  Toll_road.queue[2]  jobsProcessed:vector  ETV
attr interpolationmode  none
attr source  queueingTime
attr title  "jobs processed, vector"
0	6	1.801749688988	0
0	33	21.652316006424	17.203720524128
0	43	30.39999111505	13.930244243642
0	47	31.566862279495	11.818721343239
0	66	49.374310054913	0
0	74	52.895360357417	0
0	79	55.218510026336	0
0	101	106.739615024305	0
0	113	122.440943341232	0
0	126	147.159624941437	0
0	146	177.968552252266	0
0	153	182.597099809447	0
0	175	196.539477226915	10.058514420382
0	180	199.014506898441	5.087628552955
0	190	212.366720239493	15.667096632595
0	218	245.34810269221	0
0	223	248.010987491087	0
0	241	282.645487337208	0
0	253	309.23592760563	0
0	258	311.782307337925	0
0	263	319.71623415662	0
0	279	343.33729843607	0
0	291	357.906003183461	0
0	303	367.066843994829	0
0	316	386.254513198002	0
0	337	405.876686851699	0
0	347	412.602456203452	0
0	374	453.044349027808	0
0	436	500.671738561944	0
0	456	539.304487947467	0
0	472	561.303920054483	4.747201490234
0	511	611.740537556927	0
0	518	641.224613850662	0
0	529	656.098907436466	0
0	534	660.67137039501	0
0	558	670.723222342277	0
0	563	705.187320705378	0
0	586	732.164740227474	0
0	601	738.664446858348	0
0	605	739.589829562356	0.849682741865
0	631	763.344742272901	0
0	635	772.109156576883	1.944277714782
0	656	791.160401523121	0
0	663	799.772273556017	0
0	673	820.210377184693	0
0	681	831.5673662386	0
0	692	845.867025416358	0
0	711	855.572719953517	0
0	726	872.212171755679	11.724623105285
0	730	880.405482415573	15.905206972983
0	749	906.931836029422	0
0	768	934.984553456728	0
0	787	959.792421629317	0
0	846	1058.978659740677	0
0	868	1076.974936326178	0
0	885	1081.41158194862	2.18071889936
0	926	1140.933420104732	0
0	988	1193.804831563161	0
0	1008	1223.905443151234	0
0	1054	1289.556919585002	0
0	1065	1296.300865743608	0
0	1070	1298.989312375626	0
0	1085	1315.454952216208	0
0	1102	1329.812993135082	0
0	1123	1350.67784156718	0
0	1138	1376.865926243302	0
0	1148	1391.494729630245	0
0	1158	1409.478016999574	0
0	1174	1422.204290024681	0
0	1188	1430.537261648519	1.241875119144
0	1199	1440.390633283842	0
0	1263	1515.966903295749	0
0	1270	1518.983610116492	1.780230043774
0	1294	1534.759460319491	0
0	1331	1568.815667290273	0
0	1338	1590.161465394116	0
0	1363	1613.199078481948	0
0	1371	1614.340023975729	0
0	1393	1631.236124618747	0
0	1407	1644.876792307045	10.413487871509
0	1416	1648.787813069818	0
0	1423	1657.687119759042	0
0	1436	1678.825245707537	0
0	1453	1687.931034727853	0
0	1471	1702.485697920504	0
0	1506	1763.039359977473	0
0	1518	1775.812175242498	0
0	1533	1809.041293567695	0
0	1557	1829.03716254507	2.702809261111
0	1586	1853.933013892317	0
0	1601	1865.365697175784	0
0	1614	1882.104744882068	0
0	1622	1886.975769579173	2.435215241079
0	1632	1909.079192698172	14.369663052457
0	1641	1927.999129458188	0
0	1646	1931.570610604593	0
0	1659	1937.898633252927	0
0	1686	1953.983602559586	12.132457911538
0	1688	1954.712859997122	11.63463725959
0	1737	2022.314472448972	0
0	1743	2038.812337349789	3.629115056098
0	1760	2051.893835804226	3.108303758817
0	1762	2056.375793958384	6.933329508014
0	1771	2063.532605272147	0
0	1791	2073.164946582625	0
0	1818	2103.428149132187	0
0	1825	2118.593013860615	13.201051867146
0	1837	2130.513412439183	24.693613708792
0	1849	2140.346888181394	0
0	1864	2147.840275878966	0
0	1926	2221.474453206568	0
0	1931	2224.134119754592	0
0	1937	2228.983696386661	4.812411102634
0	1945	2235.922955506057	1.481860431014
0	1951	2244.666025032573	0
0	1974	2258.509480809702	0
0	2001	2284.974200441729	0
0	2018	2317.1504211382	0
0	2038	2336.835534300786	0
0	2043	2345.307113932296	0
0	2050	2352.95305489423	7.391786968581
0	2071	2375.759307461536	0
0	2076	2378.604866071589	0
0	2112	2438.386289392097	0
0	2123	2458.241376930757	0
0	2146	2505.367317028655	0
0	2163	2525.270933285794	0
0	2173	2561.08183534482	0
0	2178	2576.746680770917	0
0	2196	2598.663212462185	0
0	2222	2621.743373464805	16.392453077554
0	2228	2623.876229330591	0
0	2248	2637.462631567339	0
0	2258	2652.951618679753	0
0	2262	2653.538725394881	0.427391663411
0	2278	2662.112284236778	0
0	2296	2671.16462307753	0
0	2316	2684.943252244886	0
0	2333	2696.958882820333	0
0	2351	2730.109555544784	0
0	2364	2741.154340015391	0
0	2399	2773.735588691896	0
0	2413	2786.704283193397	0
0	2424	2796.088060985924	0
0	2466	2834.564062028072	0
0	2488	2891.217018041496	0
0	2508	2897.013903948026	0
0	2513	2903.187526301348	0
0	2523	2918.896173732713	9.926767940214
0	2530	2922.709232119014	12.686913601374
0	2542	2938.397805681505	4.341246122651
0	2553	2943.233498736162	0
0	2596	3005.835471790201	0
0	2604	3011.863638281883	0
0	2613	3023.450327950211	0
0	2625	3034.398113715644	2.424408811959
0	2633	3039.001084415098	0
0	2643	3045.04594612885	0
0	2653	3056.814055034974	0
0	2676	3098.239209201657	0
0	2692	3113.494697169615	0
0	2731	3159.658544546949	0
0	2737	3166.827213193122	2.244529977294
0	2753	3193.182322106448	24.466234310441
0	2758	3193.676331391316	11.257082533704
0	2762	3197.208246118092	14.545110076334
0	2767	3203.389131787883	1.142194412156
0	2776	3220.944281621278	0
0	2781	3222.095985027836	0
0	2838	3269.830407238864	0
0	2851	3275.975037751846	0
0	2862	3290.912753761279	7.814405944589
0	2876	3302.037506115681	0
0	2886	3308.512503043557	0
0	2958	3411.58443271106	0
0	2962	3416.542488844304	1.20449977733
0	2971	3428.44637354825	0
0	2976	3433.631590366286	0
0	2993	3446.507167490563	0
0	3002	3456.917023979639	0.883246985113
0	3008	3465.186365465058	0
0	3018	3474.970100228389	0
0	3022	3477.258760161265	1.109192758936
0	3041	3493.161119996036	0
0	3053	3511.109348299799	0
0	3079	3548.691029056045	0
0	3088	3553.819023304137	1.876286781203
0	3102	3567.144841184385	0
0	3123	3573.700482543312	0
0	3131	3580.768377148241	0
0	3153	3599.925763058583	0
0	3177	3630.035959748224	28.022579364895
0	3188	3644.731206811804	0
0	3193	3647.859324222567	0
0	3202	3652.889736207435	2.594298698624
0	3241	3711.635219603594	0
0	3259	3725.015193929108	0
0	3264	3728.922303699847	0
0	3273	3735.431360340256	0
0	3277	3741.658924672273	3.381269122137
0	3288	3751.736920799798	0
0	3293	3760.418096236779	0
0	3298	3764.40559547852	0
0	3303	3771.708756833626	0
0	3323	3814.900317396843	0
0	3327	3824.553232220584	3.669541698587
0	3366	3886.007799406648	0
0	3377	3888.722507754348	0
0	3390	3906.802440387807	7.903739719467
0	3405	3925.701669017202	16.790166996529
0	3417	3936.438682649136	0
0	3424	3939.651973042689	0
0	3441	3962.793373208277	0
0	3469	3992.871342981486	0
0	3488	4027.966060968499	0
0	3497	4033.210927118782	2.149444943558
0	3506	4043.387591835868	0
0	3521	4060.254958885182	0
0	3536	4071.880503070628	0
0	3544	4077.137673206661	0
0	3555	4086.607103827189	2.313767903393
0	3563	4107.462052692325	0
0	3568	4121.077310448494	0
0	3572	4138.870488050058	13.953129063618
0	3578	4144.774945733904	0
0	3596	4157.024831428925	10.106716077965
0	3598	4157.942584723159	2.138271760275
0	3610	4160.738038896657	0.876202666079
0	3628	4224.436322968297	0
0	3648	4245.932829108731	16.75726981374
0	3662	4257.69464644586	5.900149745464
0	3668	4260.423546828496	0
0	3678	4267.825976726775	6.474254659934
0	3698	4307.29661325269	0
0	3709	4321.571597007877	0
0	3722	4334.943547481149	0
0	3732	4339.141747985489	0
0	3783	4380.30106844846	0
0	3795	4389.603340906301	1.43315359312
0	3808	4405.810518085165	0
0	3813	4420.036912962145	0
0	3821	4436.867015902395	0
0	3828	4445.320911124027	0
0	3833	4458.216783130177	0
0	3840	4461.54197498837	2.231861859631
0	3903	4511.626199058354	0
0	3921	4535.661884545298	0
0	3928	4543.477283933447	0
0	3933	4552.867782693978	0
0	3943	4563.1071704444	0
0	3948	4565.540910555005	0
0	3952	4568.710264399574	1.863632090555
0	3957	4582.865861616236	1.732553449849
0	3969	4587.149020548289	0
0	3988	4605.842379591655	0
0	4018	4651.359168649857	42.529747298781
0	4020	4657.361067466482	28.244466596874
0	4038	4692.170455346417	0
0	4047	4702.447000580938	2.200593147887
0	4061	4719.400459430084	0
0	4074	4729.70559063483	0
0	4083	4738.79699199362	0
0	4094	4751.075277058567	0
0	4101	4759.592734492394	0
0	4108	4764.259666553004	0
0	4116	4770.541259371427	0
0	4126	4780.060860126882	0
0	4139	4786.57786738146	0
0	4158	4805.451520782911	14.491851572432
0	4160	4811.702378839445	14.282315650214
0	4167	4820.619602497228	20.553760793236
0	4183	4827.14669047111	4.523533548356
0	4187	4832.59253629298	5.757354803811
0	4213	4910.004652770195	0
0	4237	4960.6886668755	0
0	4304	5058.556731467166	0
0	4346	5104.090643822476	0
0	4352	5108.240009248178	4.125490859803
0	4377	5123.193784573858	13.170234770179
0	4391	5150.906530474733	0
0	4416	5176.421162364445	0
0	4428	5203.590087891224	0
0	4439	5226.679722362173	0
0	4468	5272.467905417615	0
0	4483	5294.137080668804	0
0	4501	5312.025447930359	10.054422613916
0	4505	5316.70434323995	12.976012616805
0	4513	5326.264644469579	21.59573499424
0	4524	5328.153890211544	0
0	4539	5350.244739421357	0
0	4558	5360.244915995343	0
0	4566	5362.050222756665	0
0	4578	5364.535315661411	0
0	4601	5377.136523471933	0
0	4621	5396.507710753849	0
0	4627	5401.446514633984	0.377179289105
0	4657	5412.865861226289	0
0	4683	5435.291858738281	0
0	4701	5474.456242723881	0
0	4709	5481.628752430375	0
0	4732	5503.526891290212	0
0	4755	5531.700502365435	0
0	4764	5539.905563725782	0
0	4773	5548.769237326544	0
0	4808	5599.251717661868	0
0	4815	5607.448655097721	2.695267611521
0	4817	5616.731432280382	9.787015473079
0	4853	5663.524475217855	0
0	4874	5687.028775986706	0
0	4880	5693.390565712404	3.007141763748
0	4893	5717.092380947738	0
0	4897	5728.450865473591	1.365255013266
0	4903	5738.151592430574	0
0	4911	5745.489303828337	0
0	4916	5749.832930720552	0
0	4926	5766.180769057579	0
0	4931	5771.750225701132	0
0	4950	5788.630529902778	1.633288121426
0	4961	5798.606052057644	1.946905245503
0	4982	5811.877768406635	9.404815454967
0	4987	5816.358640782345	4.156086237168
1	3	1.469470949409	0
1	25	18.53102596055	0
1	37	25.884756013255	0
1	59	44.298221934111	0
1	91	73.093471496373	0
1	123	137.664431479845	0
1	143	176.826447482408	0
1	159	187.010749934614	0
1	187	207.751214595401	0
1	203	220.570390761679	0
1	208	225.461528900438	0
1	226	248.854832266046	0
1	248	299.471196833824	0
1	268	338.723238081951	0
1	282	348.759387568151	9.231505949636
1	288	354.442259552338	0
1	324	393.912864797802	0
1	340	406.914144452903	11.567143697574
1	350	414.204303595227	5.981007873136
1	356	418.932364413774	0
1	363	438.583766734893	0
1	382	459.587224488851	8.313747425504
1	390	464.878259759431	3.778218837869
1	398	473.585223360963	0
1	406	478.389864858008	0
1	411	480.186159439541	0
1	421	488.902975125177	0
1	428	491.057101291875	1.524397357758
1	432	499.551122802855	8.746103493954
1	448	517.152004698213	0
1	453	536.776435116121	0
1	476	564.379470721004	0
1	483	577.28425767902	0
1	491	593.501959459235	0
1	506	607.340206325404	0
1	521	650.209541127267	0
1	551	664.067906730627	0
1	568	716.153102574414	0
1	573	722.172180253918	0
1	577	727.515470627533	4.420685943961
1	582	729.754531607805	1.222080838591
1	616	746.518831950468	0
1	623	758.457375763573	0
1	641	774.196488539847	0
1	651	788.528921931638	0
1	695	845.869267339506	0
1	722	869.457404668427	0
1	738	905.500959443369	0
1	754	908.260347088096	0
1	763	924.027823205517	0
1	771	937.014282573334	0
1	778	949.878925014352	0
1	798	979.055657979375	20.263038519125
1	800	980.581796572271	11.198625225014
1	805	992.047395590783	16.776812110745
1	810	994.88092068391	3.280140914641
1	815	995.947597233201	2.321391843622
1	817	1000.481273772255	5.304403532258
1	843	1058.795822602558	0
1	853	1061.696484791041	0
1	871	1079.067451747265	0
1	881	1080.952843780632	0.978163609217
1	889	1083.594624250639	0
1	897	1089.149775639837	0
1	918	1136.22160275685	0
1	922	1140.692542062071	1.150119927298
1	936	1148.055885632013	0
1	950	1154.76903649477	5.161961910995
1	968	1165.786878947553	0
1	973	1168.289566368719	0
1	982	1178.07916622895	4.195491467667
1	993	1203.159456655845	0
1	1001	1216.422294052196	0
1	1011	1232.432388565758	0
1	1023	1239.369159892207	0
1	1082	1311.346441826173	0
1	1113	1339.659304649358	0
1	1131	1371.688089107487	0
1	1141	1377.642689315374	0
1	1151	1399.805705176368	0
1	1163	1411.94709262822	0
1	1177	1422.375110238541	0
1	1190	1432.125465577551	6.767694592372
1	1203	1444.166510641559	9.959946612787
1	1205	1444.473926166058	2.701046569436
1	1216	1456.601870203286	0
1	1222	1469.222699922022	10.172341398174
1	1235	1476.575227257752	2.078540287097
1	1243	1490.433104892864	0
1	1248	1500.377486716894	0
1	1252	1502.785665507569	0.796876133842
1	1281	1525.348227089417	0
1	1286	1529.057628055226	0
1	1291	1530.968760828229	0
1	1300	1537.978939717025	2.720994194613
1	1316	1561.995756400006	0
1	1327	1568.709499776123	3.499229862708
1	1368	1614.030762190674	0
1	1378	1620.601164251824	0
1	1383	1621.964720750302	0
1	1399	1638.458089979841	0
1	1403	1640.721221398206	1.70355880748
1	1413	1647.182024757436	0
1	1428	1666.379168879402	0
1	1433	1674.45453060567	0
1	1443	1683.974920508048	0
1	1456	1690.652494892348	0
1	1465	1698.601794989711	3.800678827244
1	1467	1700.937917907393	2.844776427436
1	1478	1720.212285540523	0
1	1485	1732.425941885783	10.49487392507
1	1501	1761.342676911534	0
1	1513	1772.674471067913	0
1	1521	1782.506625581907	0
1	1528	1790.729461018312	0
1	1554	1827.700957382707	0
1	1564	1838.561886660746	0
1	1578	1850.201167458261	0
1	1592	1858.618874998208	2.122673726826
1	1604	1870.407678793445	0
1	1626	1889.792181521564	0
1	1651	1935.530652343356	0
1	1663	1940.43373112765	3.208181007714
1	1668	1941.187379519626	2.72848540011
1	1676	1945.288695791842	4.561975666887
1	1684	1951.433485213857	5.545485827857
1	1692	1959.068397003979	7.905514726306
1	1698	1969.712487470362	0
1	1702	1975.095641888494	4.353485486506
1	1711	1993.561768780576	0
1	1717	2001.27609970672	1.595195902056
1	1731	2021.645229857696	14.022060997298
1	1745	2039.289630574308	20.383094035642
1	1751	2043.028022759233	0
1	1779	2065.759797948906	0
1	1829	2122.599645776172	0
1	1846	2136.841058858656	0
1	1855	2142.109522825428	1.030519704476
1	1870	2149.319304313403	0
1	1893	2171.764748486059	0
1	1941	2233.842322322476	0
1	1958	2248.656530126867	2.205440451003
1	1969	2256.904143949206	0
1	1983	2270.041336390038	0
1	1993	2280.21756953074	0
1	1998	2282.326065995571	0
1	2013	2310.803168192186	0
1	2026	2320.984203045422	0
1	2033	2327.848029514239	0
1	2058	2367.694781117715	0
1	2088	2395.048171035885	0
1	2098	2430.029028005716	0
1	2128	2466.985986788901	0
1	2141	2502.816288118338	0
1	2153	2516.715894811949	0
1	2168	2539.208957454909	0
1	2184	2580.837272552997	0
1	2193	2595.973351531802	0
1	2209	2606.517189909844	0
1	2213	2607.769782957833	0.158520909322
1	2233	2625.731063334067	0
1	2240	2629.536976984055	3.08823130466
1	2242	2630.959394000417	2.495431573657
1	2253	2651.562071812153	0
1	2266	2656.384562898299	0
1	2270	2658.285648904366	0.769297391866
1	2283	2665.280163534737	0
1	2293	2670.457218657511	0
1	2308	2681.048941891158	0
1	2319	2685.338267690536	0
1	2348	2723.34633007759	0
1	2360	2738.337329920193	6.506506398635
1	2365	2743.31819454939	8.652890363833
1	2372	2743.828646466414	0.215070978068
1	2382	2766.708317923696	9.794411255054
1	2390	2771.011536967313	0.865496678355
1	2395	2772.531318925939	1.461613256629
1	2416	2790.826226713886	0
1	2432	2804.92615055063	1.534364136241
1	2440	2819.261921049922	9.548864304783
1	2445	2821.714970890448	5.457204855648
1	2453	2831.94662154589	0
1	2458	2832.435321182318	0
1	2463	2834.285676819769	0
1	2478	2854.886673105931	0
1	2491	2891.688946973791	0
1	2496	2891.931532829236	0
1	2527	2919.614085720592	0
1	2538	2936.171061760399	0.586762245371
1	2548	2942.723497254917	0
1	2556	2949.856082802197	0
1	2581	2978.095761274242	0
1	2616	3024.146658271161	0
1	2620	3031.961366501055	7.408042863251
1	2656	3057.769007409802	0
1	2663	3087.083017458579	0
1	2673	3098.178248215877	0
1	2693	3113.843298179391	5.617012998839
1	2701	3118.970986523276	4.997462541579
1	2713	3139.141749740316	0
1	2718	3142.183551542394	0
1	2725	3155.349391046356	3.950537138825
1	2727	3158.114687906119	3.184998915127
1	2757	3193.450143609012	0
1	2794	3236.116554772533	0
1	2800	3239.865174673949	1.306283087567
1	2816	3254.760579652064	0
1	2841	3272.602120453022	0
1	2847	3275.703777230226	2.603704524776
1	2855	3279.349892911188	1.41324694086
1	2871	3299.257969013262	0
1	2892	3310.522449304188	0
1	2901	3321.040376551398	0
1	2908	3347.64365556644	0
1	2913	3350.424077285606	0
1	2917	3353.390568609274	2.276148821229
1	2923	3356.531255522981	0
1	2931	3367.883840704803	0
1	2935	3368.452745327257	0.136787668475
1	2941	3370.269143963192	0
1	2948	3378.341884323054	0
1	2953	3382.437999842899	0
1	2983	3441.690056562767	0
1	3013	3474.776935806291	0
1	3028	3480.624861908031	0
1	3048	3503.192169664581	0
1	3061	3520.006730280282	0
1	3073	3538.934671989603	0
1	3086	3552.992788953238	11.516218104409
1	3095	3559.010111465116	7.967798811482
1	3103	3567.689931400564	6.440397212057
1	3136	3584.086640292422	0
1	3146	3595.804223280066	0
1	3196	3648.12356564604	0
1	3213	3670.204217354507	0
1	3217	3681.166662629571	5.83425010523
1	3253	3724.747771650244	0
1	3281	3746.544561298251	0
1	3311	3803.957973390062	0
1	3315	3808.736534182233	3.350438291312
1	3343	3842.220489771861	0
1	3348	3866.834883420585	0
1	3353	3877.692942177352	0
1	3357	3881.166145276248	3.062346975104
1	3362	3883.977704418131	2.722519249197
1	3380	3897.961512258495	9.965900461658
1	3403	3924.671535949315	13.57191230673
1	3425	3941.968305350129	10.443186788515
1	3433	3954.78100353618	0
1	3452	3969.68544110812	2.776452275893
1	3491	4029.199518649045	0
1	3503	4041.00976437258	0
1	3524	4062.25316679516	0
1	3532	4069.958885101155	4.821827845226
1	3550	4078.961498893195	0.354144915244
1	3587	4151.980502551163	0
1	3623	4211.524546820747	0
1	3637	4233.693628345538	0
1	3644	4242.841257645433	0
1	3650	4248.900526036858	4.580895952795
1	3703	4315.776848117499	0
1	3713	4330.070664133121	10.388433778534
1	3735	4342.115964738444	16.431093926487
1	3737	4343.666865032577	7.230960692602
1	3751	4358.982102113014	15.092586290775
1	3753	4360.816254216964	16.052038143973
1	3760	4367.626363162793	18.378729543767
1	3768	4371.26283346932	0
1	3794	4388.875175928872	0
1	3818	4435.697838205238	0
1	3846	4462.539281251635	0
1	3853	4470.397382396707	0
1	3857	4476.704812071943	1.187878152975
1	3876	4487.045992652887	0
1	3883	4489.070671777736	1.949670238185
1	3895	4502.380043348177	10.106418001903
1	3897	4503.062714022485	9.176799245489
1	3906	4530.273048622836	0
1	3911	4531.253448310125	0
1	3936	4553.744631233542	0
1	3964	4584.5523790438	0
1	3978	4590.853308051205	0
1	3982	4598.496631190539	5.904272084964
1	3999	4615.487880613337	0
1	4004	4616.627623483052	0
1	4031	4667.476911393022	0
1	4058	4709.229079625528	0
1	4068	4723.707052564929	0
1	4091	4750.273415246083	0
1	4113	4769.521818401786	0
1	4123	4779.924506017913	0
1	4145	4796.049270328534	0
1	4174	4821.849552538585	0
1	4198	4879.488540066406	0
1	4230	4954.896705058804	0
1	4242	4964.43786488464	0
1	4268	5004.322628285113	0
1	4278	5019.441749363457	12.409302030288
1	4283	5027.661135609958	18.698484854341
1	4285	5029.445574929133	14.296521673234
1	4287	5032.696990796295	8.111267521635
1	4293	5038.114215375958	0
1	4301	5058.425608504299	0
1	4312	5063.44612258367	0
1	4318	5066.935369685301	3.04743263013
1	4333	5076.37867824761	0
1	4338	5096.362006141257	0
1	4342	5101.576890562384	2.023158473805
1	4364	5113.368290530449	0
1	4388	5145.370585744481	0
1	4400	5161.042029456816	8.558150232906
1	4402	5162.567087591079	8.603754770115
1	4408	5166.069840849905	0
1	4423	5189.017311954127	0
1	4433	5215.267452315279	0
1	4458	5263.470748350032	0
1	4478	5287.294055334455	0
1	4498	5305.916283069485	0
1	4509	5323.322528700228	0
1	4521	5327.190689804066	0
1	4531	5343.482661700522	0
1	4543	5352.585844092177	2.856982077839
1	4581	5366.3363120425	0
1	4596	5375.593754699411	0
1	4615	5391.96743290559	3.445207592609
1	4631	5401.538456210197	0
1	4638	5404.280858789338	0
1	4654	5412.777814917576	0
1	4665	5419.454679556422	0
1	4693	5455.729437973211	0
1	4698	5470.117408767163	0
1	4716	5488.151140941551	13.145597011507
1	4725	5501.029279693013	13.049091121987
1	4735	5508.075941260593	7.319487705916
1	4737	5508.176045225183	5.471627405225
1	4748	5531.042141809584	19.964608049207
1	4758	5538.466291625974	16.586598677225
1	4779	5557.83513008165	0
1	4786	5562.187886331349	0
1	4793	5572.661903808677	0
1	4797	5579.894015423128	1.20987563274
1	4803	5593.704434130171	0
1	4823	5621.303708919669	0
1	4828	5631.735557152618	0
1	4832	5632.430903617501	0.370675677641
1	4837	5641.114759931898	4.482827819914
1	4848	5650.211700603249	0
1	4858	5664.261328948238	0
1	4868	5681.578000409912	0
1	4875	5687.819997214051	4.159058881704
1	4888	5715.418022251954	0
1	4908	5745.273950077408	0
1	4968	5801.869893112817	8.663854792424
1	4973	5803.824780031229	8.431707642295
1	4993	5818.996126454028	0
2	14	8.372145798619	0
2	18	15.792072656487	1.881515959311
2	42	29.292715573145	0
2	53	37.75469332603	0
2	60	48.500717038419	10.003701980049
2	80	55.226945848666	4.04375065773
2	87	72.203942072523	3.93430758298
2	98	105.399902194852	0
2	108	117.592360523757	0
2	116	122.450564507129	0
2	133	148.464190886163	0
2	138	153.478961521102	0
2	162	187.702509200522	0
2	168	189.348227356955	1.269710508759
2	184	206.480453294269	0
2	196	217.948228465213	0
2	213	234.771350948689	0
2	231	251.395533257018	0
2	238	269.687357013285	0
2	271	338.796100176989	0
2	296	362.090484024828	0
2	306	368.722381524489	0
2	313	378.185198235938	0
2	328	400.658232380268	10.878179304942
2	334	404.261880768882	0
2	366	444.025970536787	0
2	379	458.360667681722	0
2	389	462.703825322711	0
2	401	474.892855902777	0
2	418	488.382506357866	0
2	439	505.882220880894	0
2	461	549.531489118967	0
2	465	555.790864419691	5.417908829713
2	488	587.635454820907	0
2	500	604.24102475306	8.103962590725
2	502	605.168446040834	1.09500901508
2	526	653.437357922236	0
2	539	661.282484966164	0
2	548	663.386254551932	0
2	589	733.309800199139	0
2	596	734.959888503234	0
2	613	744.610743236366	0
2	628	762.326300687947	0
2	648	787.450772844608	0
2	666	804.614410815697	0
2	678	828.30668340408	0
2	699	847.706843758098	6.357347018624
2	701	852.175309849773	9.368135345381
2	705	854.297562664474	6.593766204705
2	725	871.875114915938	0
2	741	906.027057040019	0
2	750	907.469083329393	1.325941315214
2	781	958.735509335817	0
2	823	1022.168144563566	0
2	828	1034.978795640214	0
2	833	1054.010731342788	0
2	837	1056.21344403461	0.068151133607
2	858	1064.17612750246	0
2	863	1067.215430386175	0
2	877	1079.688329043946	0
2	898	1089.867744600123	3.379089021741
2	908	1103.459005120592	0
2	912	1120.085290544821	1.41176275185
2	933	1143.694495638491	0
2	940	1148.364355801586	0.154028711704
2	948	1153.790554640359	3.954610180884
2	958	1161.307982438072	0
2	963	1161.42338227923	0
2	976	1170.170779966279	0
2	998	1216.075470440239	0
2	1018	1235.488824539405	0
2	1026	1243.5055776973	0
2	1033	1256.224771544246	0
2	1038	1269.025945355671	0
2	1043	1278.644934151684	0
2	1048	1282.855512674455	0
2	1073	1301.800423539199	12.67507291893
2	1078	1310.91749971006	18.888543928069
2	1088	1320.051212579196	25.232584768781
2	1095	1327.080927987135	24.188073951895
2	1103	1330.829025212059	5.811683190101
2	1107	1335.957420661624	7.239236133103
2	1116	1340.994183711093	0
2	1128	1365.110855682204	0
2	1166	1419.736207002827	0
2	1178	1422.731160585639	0.981156106961
2	1211	1454.557664048513	0
2	1226	1469.814594559461	0
2	1230	1473.802877719942	3.286078658233
2	1256	1505.223205931786	0
2	1269	1518.539626230081	0
2	1278	1525.218408900361	0
2	1308	1556.872521497912	0
2	1313	1561.918324527729	0
2	1323	1566.685626028355	0.084112139676
2	1341	1590.244581674305	0
2	1350	1597.768709774579	7.263816952641
2	1355	1604.912420331183	10.211352648428
2	1357	1605.91250978531	5.453737657855
2	1388	1623.2837437693	0
2	1448	1684.701626885527	0
2	1484	1725.85171806934	0
2	1493	1744.199176279153	0
2	1497	1751.663302880092	3.189001435408
2	1536	1815.75445990072	0
2	1540	1818.173196469111	0.176582174833
2	1546	1825.308432381231	0
2	1561	1838.051330759212	0
2	1573	1846.801035489384	0
2	1581	1851.20588745916	0
2	1598	1863.881690347105	0
2	1611	1881.618504927678	0
2	1636	1920.159840168064	0
2	1708	1980.992693644105	0
2	1724	2014.533455349491	0
2	1733	2021.718040734235	6.98014533297
2	1766	2062.773824236898	0
2	1775	2064.685139187346	0.093018312881
2	1786	2068.368730796469	0
2	1795	2075.836858297155	2.420803117898
2	1801	2077.3475054933	0
2	1808	2084.395570226069	0
2	1813	2087.923567668494	0
2	1832	2125.160896683646	0
2	1843	2136.628789354149	0
2	1874	2153.438027990394	8.4698804877
2	1878	2161.50371814224	13.585207713362
2	1882	2165.663549970806	16.270558030255
2	1888	2170.536155923406	0
2	1898	2179.104556624729	0
2	1903	2185.731416995598	0
2	1908	2187.035443466005	0
2	1913	2190.121055391069	0
2	1917	2193.017320615065	1.575652740599
2	1923	2221.022905712814	0
2	1957	2248.290627634836	0
2	1970	2257.326720393476	5.01755744825
2	1988	2274.491063373422	0
2	2008	2299.405915967221	0
2	2023	2319.2236567379	0
2	2049	2348.565263460167	0
2	2061	2370.00814896355	0
2	2067	2374.700715931661	0.347174259793
2	2083	2389.426863813571	0
2	2093	2403.008290900778	0
2	2101	2432.739573218366	0
2	2115	2446.51811826174	13.623693744522
2	2117	2451.333392734523	14.289700609838
2	2133	2490.998054887322	0
2	2138	2502.7958552794	0
2	2158	2521.364398486477	0
2	2181	2577.28143448183	0
2	2199	2599.484504538903	0
2	2219	2618.264697739453	0
2	2286	2665.506698651244	0
2	2299	2672.276301323665	0
2	2313	2682.997885358624	0
2	2328	2691.364510743934	0
2	2336	2708.740097746912	0
2	2343	2712.97505785395	0
2	2376	2754.489364709112	0
2	2386	2767.794433405754	0
2	2404	2775.320338212563	0
2	2419	2792.675274023397	0
2	2444	2819.708554008419	0
2	2473	2839.525029806859	0
2	2483	2867.210654132051	0
2	2499	2895.021694676726	0
2	2522	2918.496095882854	0
2	2559	2955.752141226104	0
2	2567	2967.908096282293	3.797519758261
2	2573	2969.111867252005	0
2	2578	2977.0657589801	0
2	2588	2994.926697353324	0
2	2592	3005.376454866077	8.556492106904
2	2605	3012.421648174009	5.826272106183
2	2636	3041.054351801862	0
2	2646	3048.144488034775	0
2	2668	3091.533854613848	0
2	2681	3106.816591337182	0
2	2689	3113.018821270609	0
2	2705	3121.165789706723	6.171907824367
2	2744	3176.193091306205	0
2	2773	3212.111619872532	0
2	2788	3235.306589904989	0
2	2795	3238.095313793454	2.356538218346
2	2805	3244.802955551734	1.019148507997
2	2813	3251.001042354632	0
2	2820	3257.487725380557	1.85152895051
2	2826	3260.110737113636	0
2	2833	3265.152613951376	0
2	2868	3298.951781915221	0
2	2881	3306.516040401706	0
2	2897	3320.315798647641	11.096701686038
2	2928	3367.531516471895	0
2	2966	3424.293909418351	0
2	2986	3443.141141269794	0
2	2996	3455.445363066682	0
2	3033	3483.823415922661	0
2	3038	3490.014736435003	0
2	3056	3517.16813097612	0
2	3066	3523.109292288036	0
2	3094	3558.722009435002	0
2	3109	3568.96282386019	0
2	3116	3571.599132124807	0
2	3128	3579.391241420047	0
2	3143	3588.433036385248	0
2	3159	3602.805373785628	0
2	3164	3615.966933366826	0
2	3169	3619.059843203129	0
2	3173	3621.90510437152	2.188585955415
2	3181	3633.892663300198	0
2	3206	3658.411965962017	0
2	3221	3686.720991517729	0
2	3226	3697.218903659369	0
2	3233	3705.209037257076	0
2	3238	3710.511553962589	0
2	3248	3720.229528719668	0
2	3256	3724.955243610821	0
2	3308	3790.61208073211	0
2	3333	3826.676935252566	0
2	3338	3831.789270284459	0
2	3374	3888.383786546401	0
2	3387	3902.013613941544	0
2	3400	3914.812530886988	0
2	3409	3926.828160537743	0
2	3436	3956.862559096145	0
2	3446	3966.449688662741	0
2	3458	3985.246980192011	0
2	3465	3986.798173205612	0.869133451011
2	3472	3999.557746989784	13.299170211304
2	3478	4011.686170721206	0
2	3483	4018.102431177899	0
2	3511	4048.546631265381	0
2	3518	4059.604878836835	0
2	3539	4075.561595651851	0
2	3584	4148.29608429903	0
2	3600	4158.688604355824	4.92963820549
2	3606	4159.167328203847	0
2	3618	4201.976065442438	0
2	3634	4233.352143341417	0
2	3654	4250.925777474151	0
2	3674	4265.507746110551	0
2	3680	4272.443886636524	5.723066111301
2	3687	4288.490477767835	6.267773702958
2	3692	4294.026274851636	1.822014154919
2	3717	4330.076462381035	0
2	3750	4356.156327926764	0
2	3758	4364.473773983287	1.014522753442
2	3771	4373.978240940557	0
2	3778	4377.003980693685	0
2	3786	4385.844295541427	0
2	3799	4390.790507362578	0
2	3839	4460.977776067407	0
2	3863	4483.743446262342	0
2	3867	4484.934941788705	1.068553019733
2	3872	4485.89797983472	0.490852174624
2	3891	4501.119535600024	12.673919595198
2	3918	4535.536019844623	0
2	3961	4584.416942597365	0
2	3994	4611.065923234101	0
2	4012	4634.130945791614	0
2	4017	4644.733387970457	0
2	4026	4663.909729882119	0
2	4041	4696.033309643854	0
2	4053	4707.47659454841	0
2	4071	4726.232785872835	0
2	4086	4742.479700742928	0
2	4129	4780.555265339623	0
2	4146	4796.962070125934	13.1351156869
2	4164	4811.751373944401	0
2	4171	4820.727995933245	0
2	4193	4855.774141889018	0
2	4203	4900.518377848063	0
2	4207	4902.896012794636	1.867588920258
2	4216	4928.391288679123	0
2	4233	4959.694350760861	26.82591959297
2	4238	4964.112103134956	23.854189309201
2	4250	4967.794191925236	22.684956949915
2	4252	4973.560482109819	7.876073880622
2	4258	4982.181501486003	0
2	4262	4988.840001272831	2.484171007485
2	4298	5053.010085358286	0
2	4316	5066.146137588337	4.162121224293
2	4326	5072.209941269062	0
2	4356	5109.18381554102	0
2	4367	5113.84559334531	0
2	4374	5122.088349989323	0
2	4383	5137.398508731342	0
2	4413	5175.523882619068	0
2	4436	5221.487049049499	0
2	4446	5235.684373255735	0
2	4452	5242.224260869588	4.681700552712
2	4461	5263.828842612553	0
2	4473	5276.093851544144	0
2	4486	5294.927754145854	0
2	4512	5325.431570867069	0
2	4542	5351.651449919309	0
2	4551	5355.868253412676	0
2	4563	5361.696943326238	0
2	4571	5363.580902298477	0
2	4588	5372.779248780621	0
2	4593	5375.361937877191	0
2	4604	5379.974598934317	0
2	4611	5388.352372678624	0
2	4641	5404.28642220338	0
2	4645	5408.094247617007	0.557282824143
2	4668	5421.415338725922	12.91159236025
2	4675	5427.641519065546	10.183544603254
2	4677	5431.640044783248	9.935055372351
2	4688	5438.357210044502	0
2	4712	5486.200230954109	0
2	4747	5528.67829928108	0
2	4756	5538.298423480401	6.657235574833
2	4776	5554.63788008477	0
2	4843	5645.900246533219	0
2	4863	5674.963576177842	0
2	4921	5751.066741571529	0
2	4934	5771.943454559637	0
2	4938	5777.46078747099	2.107644672695
2	4944	5779.249345375841	0
2	4965	5799.879926283901	0
2	4979	5809.095197517905	0
2	4998	5838.140838928103	0
3	8	2.652834343971	1.183363394562
3	19	15.792072656487	7.419926857868
3	27	18.961224906649	0.430198946099
3	29	19.199287931776	5.2887312346
3	34	21.652316006424	19.850566317436
3	39	26.765430494251	0.880674480996
3	44	30.39999111505	25.951395632754
3	46	30.92957309987	1.636857526725
3	48	31.566862279495	15.097115408087
3	50	34.299877491061	14.551736554805
3	61	48.500717038419	10.746023712389
3	63	48.979563160484	4.681341226373
3	68	49.875157343868	0.500847288955
3	76	53.690869084413	0.795508726996
3	81	55.226945848666	16.729930790296
3	86	71.41929044211	16.200780415774
3	88	72.203942072523	21.020746881587
3	93	73.2707349061	5.001100416557
3	95	76.409566254506	3.316094758133
3	103	106.858167766211	0.118552741906
3	105	111.549540106709	6.149637911857
3	110	119.938476817505	2.346116293748
3	118	127.65867458732	5.217731246088
3	120	128.965641544953	6.515077037824
3	128	147.170952126309	0.011327184872
3	130	148.10898448955	10.444553009705
3	135	152.893730258307	4.429539372144
3	140	156.080301616653	2.601340095551
3	148	178.961568420862	2.135120938454
3	150	179.079993514847	1.111441262581
3	167	188.489295754535	1.478545819921
3	169	189.348227356955	1.645718156433
3	171	193.614564833308	5.536047985112
3	176	196.539477226915	13.942377417468
3	181	199.014506898441	12.533544091908
3	189	208.256796790491	0.50558219509
3	191	212.366720239493	18.439841894007
3	193	213.292076714742	6.811623420473
3	198	218.132979560938	0.184751095725
3	200	218.257272224084	21.557648617186
3	205	221.807241185972	1.236850424293
3	210	225.729788414349	0.268259513911
3	215	244.299899231471	9.528548282782
3	220	246.779407179021	1.431304486811
3	228	249.004687732602	0.993700241515
3	233	254.0595642336	5.204731967554
3	235	255.871219745245	4.475686488227
3	243	283.250701563367	0.605214226159
3	245	283.469190916521	13.781833903236
3	250	301.64136769745	2.170170863626
3	255	311.706865353329	2.470937747699
3	260	314.165860927957	2.383553590032
3	265	320.562741050846	0.846506894226
3	276	341.074111775478	2.278011598489
3	281	347.032167007822	3.694868571752
3	283	348.759387568151	10.0361494862
3	285	351.778874923239	12.250993304724
3	293	361.30785568027	3.401852496809
3	298	362.678674300546	8.236414748208
3	300	364.798684958472	2.708200933644
3	308	369.005846740003	0.283465215514
3	310	374.273405355201	7.206561360372
3	321	392.457174890974	6.202661692972
3	329	400.658232380268	22.47303414433
3	331	403.334430988485	13.554377913159
3	339	406.318000491363	0.441313639664
3	341	406.914144452903	13.001279655101
3	349	414.128120473765	9.866239704883
3	351	414.204303595227	18.857302839898
3	353	414.904500190055	6.681204467964
3	358	424.022180378756	11.419724175304
3	360	426.440913016308	7.508548602534
3	368	450.204790143502	6.178819606715
3	376	455.121504186937	2.077155159129
3	381	458.803741358057	0.443073676335
3	383	459.587224488851	21.003457753958
3	391	464.878259759431	13.604782696084
3	393	467.761150507391	5.05732518468
3	395	473.373054428758	12.273013507196
3	403	476.035933932359	2.450710571396
3	408	478.724570017174	0.334705159166
3	413	480.642055987972	5.749200085195
3	415	486.365105671551	6.17894623201
3	429	491.057101291875	2.154126166698
3	431	496.809414588198	8.426908230332
3	433	499.551122802855	10.018418868738
3	441	506.804496856634	15.999477547733
3	443	506.837126081977	0.954905201083
3	445	513.252473905906	12.580735343962
3	450	521.476294106874	4.324289408661
3	458	543.6335433126	6.857108196479
3	466	555.790864419691	6.259375300724
3	471	557.20575169801	6.832796108032
3	473	561.303920054483	21.999432107016
3	478	565.319215648056	8.762497083807
3	480	575.768202583397	11.388731862393
3	485	577.965653425105	0.681395746085
3	496	597.01028077009	3.508321310855
3	501	604.24102475306	16.605569932153
3	503	605.168446040834	9.031383878499
3	508	607.930959602202	0.590753276798
3	513	612.22338233678	8.149945311026
3	515	613.000343095725	1.259805538798
3	523	651.236679797508	10.012065946846
3	531	657.673799699759	1.574892263293
3	536	660.720924310461	7.283566388225
3	541	662.027939596987	11.81839846972
3	543	662.032317855735	0.749832889571
3	545	662.335525181423	1.664154786413
3	553	666.719203696103	3.332949144171
3	555	670.17227719807	6.104370467443
3	560	674.929065728432	4.205843386155
3	565	708.411600360596	3.224279655218
3	570	721.041467962703	4.888365388289
3	578	727.515470627533	5.343290373615
3	583	729.754531607805	6.659746924233
3	591	733.687597302491	0.377797103352
3	593	734.495925625663	5.963474856449
3	598	736.535478945781	4.370738718307
3	606	739.589829562356	0.925382704008
3	608	742.25649502083	3.516348200339
3	610	744.441112289962	9.481223786728
3	618	746.798947603505	2.188204367139
3	620	754.141486611714	7.622654661246
3	625	759.230375458046	0.772999694473
3	636	772.109156576883	8.764414303982
3	638	773.783327255336	11.457026567389
3	643	777.381728346751	7.21684948465
3	645	779.284414856105	5.087926316258
3	653	788.672535616936	0.143613685298
3	658	792.183724637207	1.023323114086
3	660	792.692244766998	5.24147192239
3	668	809.500340873518	9.728067317501
3	670	810.954614690264	6.340203874567
3	675	827.51427168127	7.303894496577
3	683	832.658550234389	1.091183995789
3	700	847.706843758098	19.400160354018
3	702	852.175309849773	10.825813110299
3	704	853.96456790084	8.095300561334
3	706	854.297562664474	11.490388160082
3	708	855.410852386995	9.543826970637
3	716	861.813386637793	14.109590178024
3	727	872.212171755679	16.639451802162
3	729	876.39530166532	6.937896996893
3	731	880.405482415573	19.917933765179
3	733	884.434354482818	12.55923956688
3	735	893.988639358235	29.488363915645
3	746	906.874258289823	1.373298846454
3	751	907.469083329393	1.442026289374
3	756	909.849852582156	3.706710567977
3	758	915.919658317696	8.987822288274
3	760	919.220658235092	10.960311146996
3	765	928.404783826831	4.376960621314
3	773	942.678204372426	7.693650915698
3	775	943.410062474299	6.395779900965
3	789	959.817540058071	0.025118428754
3	791	962.809794574984	4.074285239167
3	799	979.055657979375	29.176732965023
3	801	980.581796572271	21.789177112021
3	806	992.047395590783	22.664224243526
3	811	994.88092068391	19.610337203872
3	816	995.947597233201	4.346817463932
3	818	1000.481273772255	6.855068382676
3	820	1005.530161199846	10.353290959849
3	825	1027.624234504224	5.456089940658
3	830	1037.020990768556	2.042195128342
3	838	1056.21344403461	2.202712691822
3	840	1057.21202900062	1.066736099617
3	848	1059.714483469493	0.918660866935
3	850	1060.16062890659	1.181969165913
3	855	1062.131623995995	0.435139204954
3	860	1065.177361535028	1.001234032568
3	865	1070.231434352606	3.016003966431
3	882	1080.952843780632	1.885392033367
3	884	1081.172810954737	1.198130783322
3	886	1081.41158194862	4.436645622442
3	891	1083.750584405617	0.155960154978
3	899	1089.867744600123	10.179415556177
3	901	1090.24445398611	3.755798407728
3	903	1090.479455048217	11.248591998957
3	905	1092.052666097781	2.902890457944
3	913	1120.085290544821	16.626285424229
3	915	1121.492636439325	2.819108646354
3	923	1140.692542062071	4.470939305221
3	928	1141.881195240385	2.338773105612
3	930	1143.180693539363	2.247273434631
3	941	1148.364355801586	4.669860163095
3	949	1153.790554640359	5.580227550477
3	951	1154.76903649477	6.713150862757
3	953	1155.746183760491	6.139109176716
3	955	1157.806664165407	7.970719705932
3	960	1161.348387130711	0.040404692639
3	965	1161.987732157629	0.564349878399
3	970	1167.151764163241	1.364885215688
3	978	1170.609915975125	0.439136008846
3	983	1178.07916622895	9.789599860231
3	985	1184.573080428819	10.689405667536
3	990	1200.475642351696	6.670810788535
3	995	1206.133842303647	2.974385647802
3	1003	1220.246788371542	3.824494319346
3	1005	1221.022599962629	4.94712952239
3	1013	1232.441242464047	8.535799312813
3	1015	1232.945851490924	0.513462925166
3	1020	1236.012397960366	0.523573420961
3	1028	1244.776997638264	1.271419940964
3	1030	1251.848448627255	12.479288735048
3	1035	1263.541146407556	7.31637486331
3	1040	1270.144332785941	1.11838743027
3	1045	1282.5229787476	3.878044595916
3	1062	1295.763151459049	6.206231874047
3	1067	1297.821503123445	1.520637379837
3	1072	1300.776939144935	1.787626769309
3	1074	1301.800423539199	18.944910864744
3	1079	1310.91749971006	21.792149089791
3	1087	1317.600023483308	2.1450712671
3	1089	1320.051212579196	28.022256797205
3	1091	1321.939126946858	10.592685120685
3	1096	1327.080927987135	32.26230017672
3	1104	1330.829025212059	27.936171176819
3	1106	1331.941418415296	2.128425280214
3	1108	1335.957420661624	10.940078639666
3	1110	1337.74257606095	9.024391532429
3	1118	1341.884582294726	0.890398583633
3	1120	1349.263675181223	9.604370531865
3	1125	1353.475121398492	2.797279831312
3	1133	1372.976782835029	7.865927152825
3	1135	1375.55071694195	3.862627834463
3	1143	1378.48459252845	0.841903213076
3	1145	1381.400458504269	4.534532260967
3	1153	1399.844328572974	0.038623396606
3	1155	1400.649038321339	9.154308691094
3	1160	1411.926363239805	2.448346240231
3	1168	1420.561569654904	8.614477026684
3	1179	1422.731160585639	2.994953582812
3	1181	1423.919829400598	2.16982492192
3	1189	1430.537261648519	8.332971623838
3	1191	1432.125465577551	9.75035533901
3	1196	1434.87929881466	5.583912285285
3	1204	1444.166510641559	18.80873965638
3	1206	1444.473926166058	10.267362137286
3	1208	1446.711195120249	4.938315523627
3	1213	1455.829303396178	1.271639347665
3	1218	1456.817676738912	16.42704345507
3	1223	1469.222699922022	12.620829718736
3	1231	1473.802877719942	3.988283160481
3	1236	1476.575227257752	17.524868733904
3	1238	1477.06440303413	6.547603972421
3	1240	1485.347561231927	10.850874261272
3	1245	1491.748195736316	1.315090843452
3	1253	1502.785665507569	2.408178790675
3	1258	1507.334129236598	2.110923304812
3	1260	1512.398599312271	10.409809938544
3	1271	1518.983610116492	3.016706820743
3	1273	1520.149225261025	1.609599030944
3	1275	1524.185579219288	6.98219914657
3	1283	1527.643056742585	2.294829653168
3	1288	1530.502747587183	1.445119531957
3	1299	1535.697315164471	10.47890626411
3	1301	1537.978939717025	7.010178888796
3	1303	1538.375804136411	3.117858613999
3	1305	1540.588921088794	5.829460769303
3	1310	1559.762906998809	2.890385500897
3	1324	1566.685626028355	4.767301500626
3	1326	1567.378616646401	0.777102757722
3	1328	1568.709499776123	6.713743376117
3	1333	1571.752469174348	6.542199260933
3	1335	1573.249092605944	4.433425315671
3	1349	1596.815758612676	6.65429321856
3	1351	1597.768709774579	7.524128100274
3	1356	1604.912420331183	14.407527509245
3	1358	1605.91250978531	11.211442102555
3	1360	1606.401836022386	5.943063894931
3	1365	1613.799592308228	0.60051382628
3	1373	1616.69775174991	2.666989559236
3	1375	1619.89349684492	5.553472869191
3	1380	1621.674150463084	1.07298621126
3	1385	1622.152745568442	0.18802481814
3	1390	1624.717654601173	1.433910831873
3	1404	1640.721221398206	2.263131418365
3	1406	1641.425616748914	2.407954158188
3	1408	1644.876792307045	13.640667688298
3	1410	1644.998736110767	10.535431675231
3	1418	1649.434082665651	2.252057908215
3	1420	1652.3020114252	3.514198355382
3	1425	1660.255807487548	2.568687728506
3	1430	1672.27421457229	5.895045692888
3	1438	1681.424990419519	2.599744711982
3	1440	1682.177062417083	7.722531811413
3	1445	1684.051954862767	0.077034354719
3	1450	1684.728718477886	0.027091592359
3	1461	1696.979978281838	9.048943553985
3	1466	1698.601794989711	7.949300097363
3	1468	1700.937917907393	6.136801744926
3	1473	1703.261686166876	0.775988246372
3	1475	1715.650866327244	17.557724847287
3	1486	1732.425941885783	12.21365634526
3	1488	1735.123424620371	13.192356659658
3	1490	1741.960456874806	16.108738805466
3	1498	1751.663302880092	7.464126600939
3	1503	1761.633191460767	0.290514549233
3	1508	1763.604912332532	15.130610887848
3	1510	1766.887916313665	3.848556336192
3	1515	1775.598605969362	2.924134901449
3	1523	1783.229432568407	7.417257325909
3	1525	1788.294972600109	5.788347018202
3	1530	1790.783367950823	0.053906932511
3	1541	1818.173196469111	2.418736568391
3	1543	1819.298720546564	1.302106252286
3	1551	1827.316920874255	2.008488493024
3	1556	1827.868778752648	0.167821369941
3	1558	1829.03716254507	19.995868977375
3	1566	1839.223729227363	1.172398468151
3	1568	1839.801228061104	1.239341400358
3	1570	1839.901819134805	13.567465850846
3	1575	1846.84465114424	0.043615654856
3	1583	1852.738985632715	1.533098173555
3	1588	1856.258432217815	2.325418325498
3	1593	1858.618874998208	8.417707539947
3	1595	1861.104559829263	4.608358557881
3	1606	1872.919220179933	9.037529832828
3	1608	1872.96229558059	7.596598404806
3	1616	1882.147885932318	0.52938100464
3	1618	1884.407985615238	14.000306821793
3	1623	1886.975769579173	4.871024697105
3	1628	1890.20190676738	0.409725245816
3	1633	1909.079192698172	24.538638360078
3	1638	1924.977193810527	30.267664164812
3	1643	1928.875249922987	0.876120464799
3	1648	1935.524675844068	15.364835676004
3	1653	1937.041390669504	5.470780064911
3	1664	1940.43373112765	4.903078784294
3	1669	1941.187379519626	3.96182939969
3	1677	1945.288695791842	6.829801672326
3	1685	1951.433485213857	10.706765088902
3	1687	1953.983602559586	16.084969306659
3	1689	1954.712859997122	12.861715349074
3	1691	1957.964066031398	14.885843293866
3	1693	1959.068397003979	13.180397617979
3	1695	1960.318053024331	9.155170746658
3	1703	1975.095641888494	5.383154418132
3	1705	1975.565099076569	4.822942674581
3	1713	1995.117239905744	14.124546261639
3	1718	2001.27609970672	7.714330926144
3	1732	2021.645229857696	21.964326053032
3	1734	2021.718040734235	7.184585384744
3	1742	2035.338997961093	20.601102559828
3	1744	2038.812337349789	16.497864900817
3	1746	2039.289630574308	31.66646171391
3	1748	2040.64126449286	21.734727954194
3	1753	2045.24333306791	2.215310308677
3	1761	2051.893835804226	16.710613510535
3	1763	2056.375793958384	7.590261912975
3	1768	2063.154961500614	13.712497050244
3	1776	2064.685139187346	1.911314950448
3	1781	2066.408245386331	2.875640114184
3	1783	2066.522756427376	1.930635552911
3	1788	2068.571430432909	2.811632484003
3	1796	2075.836858297155	7.468127500686
3	1798	2076.475927680739	3.059872501482
3	1803	2078.316442998116	5.151496415491
3	1805	2080.102998322373	2.755492829073
3	1810	2086.202763870637	1.807193644568
3	1815	2097.234593819239	9.311026150745
3	1826	2118.593013860615	15.164864728428
3	1834	2125.903696685063	0.742800001417
3	1836	2127.542363970927	4.942718194755
3	1838	2130.513412439183	25.121450445714
3	1840	2135.542521677315	29.722722946924
3	1854	2141.205971626291	0.859083444897
3	1856	2142.109522825428	5.268463966772
3	1861	2147.781885338337	6.702882217385
3	1875	2153.438027990394	16.809238636245
3	1877	2156.313750666124	6.994446352721
3	1879	2161.50371814224	16.535570639546
3	1881	2161.590871118905	13.750595239939
3	1883	2165.663549970806	17.745039541928
3	1885	2166.028486119723	16.635494179172
3	1890	2171.267762849427	0.731606926021
3	1895	2175.059072303719	3.29432381766
3	1900	2181.11790685148	2.013350226751
3	1905	2185.875338617368	0.14392162177
3	1910	2189.460316206945	2.42487274094
3	1918	2193.017320615065	2.896265223996
3	1920	2193.762745760755	2.321077886289
3	1928	2221.497363708612	0.022910502044
3	1936	2224.922290735284	3.89938502247
3	1938	2228.983696386661	4.849576632069
3	1946	2235.922955506057	11.75167022203
3	1948	2239.194497146391	4.753402071348
3	1959	2248.656530126867	14.814207804391
3	1961	2251.085695091495	6.419670058922
3	1966	2252.644993444376	6.193903768512
3	1971	2257.326720393476	9.03609275864
3	1976	2258.978516147028	2.074372197822
3	1978	2259.234032622718	6.924869677492
3	1980	2262.356734453231	3.847253643529
3	1985	2270.690678554926	0.649342164888
3	1990	2275.309597872563	0.818534499141
3	1995	2280.401184550861	0.183615020121
3	2003	2286.041949160133	3.715883164562
3	2005	2294.994376075288	10.020175633559
3	2010	2299.45704957993	0.051133612709
3	2015	2311.827067330017	1.023899137831
3	2020	2317.905271203907	0.754850065707
3	2028	2322.22009313833	2.99643640043
3	2030	2324.947170307113	3.962967261691
3	2035	2329.584124700603	1.736095186364
3	2040	2343.793068644297	6.957534343511
3	2051	2352.95305489423	7.645940961934
3	2053	2354.604346090742	6.039082630575
3	2055	2357.674118011529	12.11285008588
3	2063	2370.052132650641	2.357351532926
3	2068	2374.700715931661	4.692566968111
3	2073	2377.190507233453	1.431199771917
3	2078	2381.32146299964	2.716596928051
3	2080	2386.348106997516	11.994565325648
3	2085	2391.314625165252	1.887761351681
3	2090	2397.570957069409	2.522786033524
3	2095	2405.119662700701	2.111371799923
3	2103	2432.850661006982	2.821633001266
3	2114	2438.88214082962	0.495851437523
3	2116	2446.51811826174	13.778545043374
3	2118	2451.333392734523	18.438968217305
3	2120	2451.550619440167	14.506927315482
3	2125	2459.112206211088	0.870829280331
3	2130	2468.621853518032	1.635866729131
3	2135	2498.417241959882	7.41918707256
3	2143	2502.970985428808	0.175130149408
3	2148	2510.078867031685	4.71155000303
3	2150	2511.57912207138	8.762833953042
3	2155	2517.001714195703	0.285819383754
3	2160	2522.977372897446	1.612974410969
3	2165	2529.997119019453	4.726185733659
3	2170	2543.843857249215	4.634899794306
3	2175	2563.278474816014	2.196639471194
3	2186	2581.826775931617	4.545341449787
3	2188	2584.090720132819	7.344039361902
3	2190	2591.220333299386	10.383060746389
3	2201	2599.720906524073	3.747554992271
3	2203	2601.117983475195	1.633478936292
3	2214	2607.769782957833	1.252593047989
3	2216	2616.163099119172	8.551837070661
3	2221	2619.419455234052	1.154757494599
3	2223	2621.743373464805	23.08016100262
3	2225	2623.558187703847	18.207267316596
3	2230	2625.280242412111	1.40401308152
3	2241	2629.536976984055	3.805913649988
3	2243	2630.959394000417	4.510648321022
3	2245	2632.674132726257	4.210170299497
3	2250	2640.299818589195	2.837187021856
3	2255	2652.666857523099	1.104785710946
3	2263	2653.538725394881	0.587106715128
3	2271	2658.285648904366	1.901086006067
3	2273	2660.769441166952	3.253089654452
3	2275	2660.834812477939	7.723478746469
3	2280	2663.728352605005	1.616068368227
3	2288	2665.996430496945	0.716266962208
3	2290	2668.483272888855	2.976574237611
3	2301	2673.667210899946	2.502587822416
3	2303	2674.981422357193	2.705121033528
3	2305	2678.840617161233	8.383398503722
3	2310	2681.091879020324	0.042937129166
3	2321	2685.464295350991	0.126027660455
3	2323	2686.106440787238	3.108555428614
3	2325	2688.780306386815	3.837054141929
3	2330	2692.919619236315	1.555108492381
3	2338	2711.317288956128	2.577191209216
3	2340	2712.153680274831	15.194797454498
3	2345	2716.309962764046	3.334904910096
3	2353	2730.866822119488	0.757266574704
3	2361	2738.337329920193	14.990999842603
3	2366	2743.31819454939	11.487371027832
3	2368	2743.521187516358	2.366847500967
3	2373	2743.828646466414	9.163342280857
3	2378	2754.495362041002	0.00599733189
3	2383	2766.708317923696	23.09474243535
3	2391	2771.011536967313	14.097630298671
3	2396	2772.531318925939	2.385278636981
3	2401	2774.519965174806	6.725531769052
3	2406	2777.376499362575	6.306793693265
3	2408	2777.561251774757	3.825663082861
3	2410	2781.032554637003	5.71221642444
3	2421	2794.392668578491	7.688385385094
3	2426	2796.499880369793	0.411819383869
3	2428	2796.555993506787	3.88071948339
3	2433	2804.92615055063	14.099923836744
3	2441	2819.261921049922	15.870134635533
3	2446	2821.714970890448	12.001914145309
3	2448	2822.548043634253	2.839489625834
3	2450	2823.851693294185	7.593927259385
3	2455	2832.271176253836	0.324554707946
3	2460	2832.931301723606	0.495980541288
3	2468	2835.086762438731	0.522700410659
3	2470	2836.601660154692	2.315983334923
3	2475	2846.514163681387	6.989133874528
3	2480	2858.709266515625	3.822593409694
3	2485	2868.639175614808	1.428521482757
3	2493	2891.716332771869	0.027385798078
3	2501	2895.281034397222	0.259339720496
3	2503	2895.513614116332	4.296596074836
3	2505	2895.84144183321	3.909909003974
3	2510	2901.790460880465	4.776556932439
3	2524	2918.896173732713	15.708647431365
3	2529	2920.143343161782	1.647247278928
3	2531	2922.709232119014	13.739826326515
3	2539	2936.171061760399	16.556976039807
3	2541	2937.064128239499	1.479828724471
3	2543	2938.397805681505	28.375487163865
3	2545	2941.309456170159	7.252896611305
3	2550	2943.04142232219	0.317925067273
3	2561	2955.835497609227	5.97941480703
3	2563	2956.885783051445	13.652284315283
3	2568	2967.908096282293	12.155955056189
3	2570	2968.720988379418	4.610411855386
3	2575	2970.659211731977	1.547344479972
3	2583	2980.944238130679	3.878479150579
3	2585	2983.901941352769	5.806180078527
3	2593	3005.376454866077	10.449757512753
3	2601	3008.381744199151	2.54627240895
3	2606	3012.421648174009	15.601685414836
3	2608	3018.723343064039	6.859704782156
3	2610	3021.270440039878	14.675063972052
3	2621	3031.961366501055	7.814708229894
3	2626	3034.398113715644	10.947785765433
3	2628	3035.754329633393	11.201005995589
3	2630	3037.25001281006	5.276307906375
3	2638	3043.716444033181	2.662092231319
3	2640	3043.818450513576	4.817366098478
3	2648	3048.664040412654	0.519552377879
3	2650	3049.362867904081	4.316921775231
3	2658	3061.665567961604	4.85151292663
3	2660	3063.225851824002	5.4568444142
3	2665	3087.317557320301	0.234539861722
3	2670	3096.884480601925	5.350625988077
3	2678	3102.827926465726	4.588717264069
3	2683	3106.835030955921	0.018439618739
3	2694	3113.843298179391	15.665049963514
3	2702	3118.970986523276	10.744701342724
3	2704	3120.960062570179	6.986538588482
3	2706	3121.165789706723	8.146968436114
3	2708	3128.239610909944	14.744913740329
3	2710	3132.76792614675	17.774044264394
3	2715	3139.812306474556	0.67055673424
3	2726	3155.349391046356	13.165839503962
3	2728	3158.114687906119	6.715833998588
3	2733	3164.123801508631	9.194112517639
3	2738	3166.827213193122	7.168668646173
3	2746	3176.641623952352	0.448532646147
3	2754	3193.182322106448	28.59963889062
3	2759	3193.676331391316	24.960243595309
3	2761	3196.27617603107	2.826032422058
3	2763	3197.208246118092	14.78899726048
3	2768	3203.389131787883	20.725995746125
3	2770	3205.746946684692	3.500009308965
3	2778	3221.582922796576	0.638641175298
3	2783	3222.557721243975	10.446101371443
3	2785	3223.758806538381	1.662821510545
3	2796	3238.095313793454	2.788723888465
3	2801	3239.865174673949	3.748619901416
3	2806	3244.802955551734	9.064179976626
3	2808	3246.768631641936	8.209740055554
3	2810	3250.476120533244	6.692313489507
3	2821	3257.487725380557	6.486683025925
3	2823	3258.887334234006	3.251137803959
3	2828	3260.92455436858	6.163974716516
3	2830	3262.350933351924	2.240196238288
3	2835	3265.16955837927	0.016944427894
3	2846	3274.058761284308	4.228354045444
3	2848	3275.703777230226	3.101656777204
3	2856	3279.349892911188	6.249820205738
3	2858	3279.71314411294	1.776498142612
3	2863	3290.912753761279	14.937716009433
3	2865	3290.93869394381	7.84034612712
3	2873	3299.564939218006	0.613157302785
3	2878	3303.110614808059	1.073108692378
3	2883	3307.498627340465	8.240658327203
3	2894	3314.514941393529	6.002438349972
3	2896	3314.955805264467	4.433355960279
3	2898	3320.315798647641	13.799758245935
3	2903	3325.502293955005	4.461917403607
3	2905	3333.087731553757	23.868634592154
3	2910	3348.175735687394	0.532080120954
3	2918	3353.390568609274	2.966491323668
3	2920	3355.826312178969	4.711892390924
3	2925	3364.998323582904	8.467068059923
3	2936	3368.452745327257	0.568904622454
3	2938	3369.704133881517	1.388176222735
3	2943	3373.002734971806	5.471218499911
3	2945	3378.005101656503	7.735957693311
3	2950	3379.483262021549	1.141377698495
3	2955	3387.680816549408	5.242816706509
3	2963	3416.542488844304	4.958056133244
3	2968	3426.043049332582	10.705060265608
3	2973	3433.151787185677	4.705413637427
3	2978	3437.196922055518	12.903012637167
3	2980	3437.951262042833	4.319671676547
3	2988	3443.388049150973	0.246907881179
3	2990	3445.653232897188	3.963176334421
3	3001	3456.228661990549	0.783298923867
3	3003	3456.917023979639	10.409856489076
3	3005	3463.353825913392	7.320048918866
3	3010	3465.970650500637	0.784285035579
3	3015	3474.851687372174	0.074751565883
3	3023	3477.258760161265	2.288659932876
3	3025	3477.860127238191	1.710559835862
3	3030	3482.010842007164	1.385980099133
3	3035	3487.89348371906	4.070067796399
3	3043	3496.721175362122	3.560055366086
3	3045	3497.183548818738	7.168812383735
3	3050	3508.56625055925	5.374080894669
3	3058	3518.931995433924	7.822647134125
3	3063	3520.695686336705	3.527555360585
3	3068	3523.843573027301	0.734280739265
3	3070	3530.457744875821	10.451014595539
3	3087	3552.992788953238	14.058116963635
3	3089	3553.819023304137	5.127994248092
3	3091	3554.702945525701	2.760209002767
3	3096	3559.010111465116	17.533540616287
3	3104	3567.689931400564	16.64761874693
3	3106	3568.294429001086	9.572419566084
3	3111	3569.823213299522	2.678372115137
3	3113	3569.989559128533	1.026735268343
3	3118	3571.978584700767	10.72905051226
3	3120	3573.12582180136	1.526689676553
3	3125	3576.765962179562	3.06547963625
3	3133	3580.963190905163	0.194813756922
3	3138	3584.470783775185	5.079542355138
3	3140	3584.683353374984	0.596713082562
3	3148	3596.453455718401	0.649232438335
3	3150	3596.496454599361	8.063418214113
3	3161	3606.250536460787	3.445162675159
3	3166	3616.784951212759	0.818017845933
3	3174	3621.90510437152	2.845261168391
3	3176	3623.792625946559	4.076107530454
3	3178	3630.035959748224	30.110196689641
3	3183	3637.336389608642	35.323009225313
3	3185	3641.988332735608	8.09566943541
3	3190	3645.858635247912	1.127428436108
3	3201	3652.323875102489	4.200309456449
3	3203	3652.889736207435	5.030411984868
3	3208	3658.809533513096	0.397567551079
3	3210	3662.11728666126	11.821849152449
3	3218	3681.166662629571	10.962445275064
3	3223	3687.136144148301	0.415152630572
3	3228	3698.055315614767	22.722903090426
3	3230	3701.488742206128	4.269838546759
3	3235	3709.171823749443	3.962786492367
3	3243	3715.424752823267	4.913198860678
3	3245	3718.564132562065	6.928912958471
3	3250	3721.054604564139	0.825075844471
3	3261	3728.824513398767	3.809319469659
3	3266	3729.037784782546	4.082541171725
3	3268	3731.06223571423	6.314464063986
3	3270	3732.753441148828	3.831137448981
3	3278	3741.658924672273	6.227564332017
3	3283	3747.052775827314	0.508214529063
3	3285	3751.27817130914	13.000515759004
3	3290	3751.840727852768	0.10380705297
3	3295	3763.215356563163	2.797260326384
3	3300	3764.634193117507	0.228597638987
3	3305	3778.501696979792	6.792940146166
3	3316	3808.736534182233	4.778560792171
3	3318	3813.462070468893	8.075974577972
3	3320	3814.161579045567	23.549498313457
3	3328	3824.553232220584	9.652914823741
3	3330	3825.802409165928	4.918718643931
3	3335	3828.274721682129	1.597786429563
3	3340	3832.995119749261	1.205849464802
3	3345	3846.964214028345	4.743724256484
3	3350	3867.50984041803	0.674956997445
3	3358	3881.166145276248	3.473203098896
3	3363	3883.977704418131	5.873906116987
3	3368	3887.161144442299	1.153345035651
3	3379	3890.983508365213	2.599721818812
3	3381	3897.961512258495	16.706327089561
3	3389	3903.581179779001	1.567565837457
3	3391	3906.802440387807	18.079932633459
3	3402	3916.474730407028	1.66219952004
3	3404	3924.671535949315	36.675924152478
3	3406	3925.701669017202	26.802968348862
3	3411	3930.023970317846	21.112468297173
3	3419	3936.554615233508	9.726454695765
3	3421	3937.039611076912	0.600928427776
3	3426	3941.968305350129	30.868681707544
3	3428	3942.395238579798	2.743265537109
3	3430	3943.767156041509	12.242037479895
3	3438	3960.91521126206	4.052652165915
3	3443	3964.031201325993	1.237828117716
3	3448	3966.871540432268	0.421851769527
3	3453	3969.68544110812	14.90443757194
3	3455	3974.171362630143	7.262373797916
3	3466	3986.798173205612	1.551193013601
3	3471	3996.450665014099	3.579322032613
3	3473	3999.557746989784	13.628707235183
3	3475	4003.096200849841	16.837624071361
3	3480	4011.805650608696	0.11947988749
3	3485	4019.840707173077	1.738275995178
3	3496	4031.118221694136	1.918703045091
3	3498	4033.210927118782	5.244866150283
3	3500	4036.062658327183	5.001176151959
3	3508	4046.079602157261	2.692010321393
3	3513	4048.556036436436	7.546272063856
3	3515	4050.085812356177	1.539181090796
3	3526	4063.550933164756	3.295974279574
3	3531	4069.363877884594	9.758999047759
3	3533	4069.958885101155	7.705718305995
3	3541	4076.731638980589	4.851135909961
3	3549	4078.711202596905	3.149606945054
3	3551	4078.961498893195	13.824441637266
3	3556	4086.607103827189	9.469430620528
3	3558	4088.599390087592	4.306054163796
3	3560	4096.731713805564	18.124359827613
3	3565	4108.588853599222	1.126800906897
3	3573	4138.870488050058	17.793177601564
3	3575	4139.01118614956	14.09382716312
3	3592	4155.717009217317	3.736506666154
3	3597	4157.024831428925	12.249885695021
3	3599	4157.942584723159	11.024469372199
3	3601	4158.688604355824	10.392520056794
3	3603	4159.134628822857	5.375662672523
3	3611	4160.738038896657	4.933725933773
3	3613	4162.615680447762	2.753844217184
3	3615	4164.139793169178	4.972464965331
3	3620	4206.383246405278	4.40718096284
3	3625	4213.310200039227	1.78565321848
3	3639	4235.607842325451	2.255698984034
3	3641	4236.88829972417	3.194671378632
3	3649	4245.932829108731	21.496506140434
3	3651	4248.900526036858	6.059268391425
3	3659	4252.391581247386	1.465803773235
3	3661	4253.558570855457	9.238940771394
3	3663	4257.69464644586	28.519087150869
3	3665	4258.370820076199	6.576323375803
3	3679	4267.825976726775	7.402429898279
3	3681	4272.443886636524	6.936140525973
3	3683	4279.71029334656	18.358571279719
3	3688	4288.490477767835	21.769657242612
3	3693	4294.026274851636	11.803570786759
3	3695	4305.413951296191	13.209690599474
3	3700	4310.030014720492	2.733401467802
3	3714	4330.070664133121	14.293816015622
3	3719	4332.044205114114	10.472608106237
3	3724	4335.447698214443	0.504150733294
3	3729	4338.882047490447	8.805585109412
3	3734	4339.317005368625	0.175257383136
3	3736	4342.115964738444	22.433734383857
3	3738	4343.666865032577	17.98199422062
3	3752	4358.982102113014	22.546197773039
3	3754	4360.816254216964	16.926738394725
3	3759	4364.473773983287	8.317446056523
3	3761	4367.626363162793	22.862147089802
3	3763	4368.452227435418	19.204593816392
3	3765	4370.456485941952	6.997234712107
3	3773	4374.054924609588	0.076683669031
3	3775	4375.506640553557	4.243807084237
3	3780	4379.304605972875	2.30062527919
3	3791	4388.724018228085	2.879722686658
3	3796	4389.603340906301	9.302272457841
3	3801	4393.787059755019	5.616872441838
3	3803	4394.454269365903	5.579093437031
3	3805	4397.92547631156	7.134968948982
3	3810	4416.974158796526	11.163640711361
3	3815	4426.622294824449	6.585381862304
3	3823	4437.380244280344	1.682406075106
3	3825	4441.006483367381	4.139467464986
3	3830	4447.328641654966	2.007730530939
3	3841	4461.54197498837	3.325191858193
3	3843	4461.998119635183	2.688006506444
3	3848	4463.7366622905	2.758886223093
3	3850	4465.362206606266	2.822925354631
3	3858	4476.704812071943	6.307429675236
3	3860	4481.989158405449	6.472224486481
3	3868	4484.934941788705	1.191495526363
3	3873	4485.89797983472	2.031591065748
3	3884	4489.070671777736	2.024679124849
3	3892	4501.119535600024	15.712407939928
3	3894	4501.378213852094	12.932597847268
3	3896	4502.380043348177	15.259041808626
3	3898	4503.062714022485	10.789088676211
3	3900	4508.674491053057	14.788576276061
3	3908	4530.758997907153	0.485949284317
3	3913	4532.245646287031	0.992197976906
3	3915	4533.700177212064	22.07397815371
3	3923	4536.797581073754	1.261561229131
3	3925	4538.428072512101	2.766187966803
3	3930	4548.333752558879	4.856468625432
3	3938	4558.516204486798	4.771573253256
3	3940	4561.476353355583	8.608570661605
3	3945	4565.333690052216	2.226519607816
3	3953	4568.710264399574	3.169353844569
3	3958	4582.865861616236	16.019229307217
3	3966	4584.670571275003	3.537263108616
3	3971	4587.273528479174	2.856585881809
3	3973	4587.942740714689	0.7937201664
3	3975	4590.144334125568	5.591955081768
3	3983	4598.496631190539	7.643323139334
3	3985	4598.706075647895	6.11371654232
3	3996	4614.353630959482	3.287707725381
3	4001	4615.711859695134	0.223979081797
3	4006	4618.421301813275	1.793678330223
3	4014	4643.868344910627	9.737399119013
3	4019	4651.359168649857	45.516789058202
3	4021	4657.361067466482	48.531646115406
3	4023	4659.409318168528	14.675930198071
3	4028	4664.139216567895	35.022615698287
3	4033	4670.166381565841	2.689470172819
3	4035	4688.640334437129	24.73060455501
3	4043	4699.718290082934	3.68498043908
3	4048	4702.447000580938	10.276545234521
3	4050	4703.741452283743	3.495044850692
3	4055	4707.923879122704	0.447284574294
3	4063	4721.872617879512	12.643538253984
3	4065	4722.491623069227	3.091163639143
3	4076	4732.241172549623	6.008386676788
3	4078	4736.554900240489	6.849309605659
3	4080	4737.35674497717	13.649692412241
3	4088	4745.777223737813	6.980231744193
3	4096	4752.46417507245	2.190759826367
3	4098	4757.6536783437	6.578401285133
3	4103	4759.683656269574	0.09092177718
3	4105	4760.623147354041	18.143446611113
3	4110	4766.320888678594	2.06122212559
3	4118	4771.972992572019	1.431733200592
3	4120	4774.63325375083	5.111435349044
3	4131	4782.295578969962	2.371072952049
3	4136	4783.860872392252	3.80001226537
3	4147	4796.962070125934	16.406804786311
3	4152	4797.896500396502	1.847230067968
3	4154	4797.899351845021	14.072397405987
3	4159	4805.451520782911	18.873653401451
3	4161	4811.702378839445	20.742709628966
3	4166	4818.356487391138	6.605113446737
3	4168	4820.619602497228	23.199539307997
3	4179	4823.729424445594	1.879871907009
3	4184	4827.14669047111	27.080848767118
3	4186	4830.389481179114	9.661485245869
3	4188	4832.59253629298	9.969379370226
3	4190	4835.868276682156	9.033095192987
3	4195	4860.83310438124	5.058962492222
3	4200	4885.482939348714	5.994399282308
3	4208	4902.896012794636	2.377634946573
3	4210	4905.786202403008	4.75777852863
3	4218	4930.124523282776	20.119870512581
3	4232	4958.243865304672	3.347160245868
3	4234	4959.694350760861	31.303062081738
3	4239	4964.112103134956	31.243671967065
3	4247	4965.891810580538	5.203143705038
3	4249	4966.889526942744	2.451662058104
3	4251	4967.794191925236	27.536278099481
3	4253	4973.560482109819	28.451247134498
3	4255	4975.040674739069	9.356266509872
3	4263	4988.840001272831	6.658499786828
3	4265	4998.561390152064	12.205559886718
3	4279	5019.441749363457	15.119121078344
3	4284	5027.661135609958	20.628688276789
3	4286	5029.445574929133	20.482924173516
3	4288	5032.696990796295	17.547937540396
3	4290	5034.198908154214	9.613184879554
3	4295	5039.146235907378	1.03202053142
3	4306	5061.344663349092	2.919054844793
3	4317	5066.146137588337	13.136052230051
3	4319	5066.935369685301	3.489247101631
3	4321	5069.268488591079	5.380551535908
3	4323	5070.779020820439	8.795004456395
3	4328	5074.530894874893	2.320953605831
3	4330	5076.132855530781	17.576124063615
3	4335	5087.772283001844	11.393604754234
3	4343	5101.576890562384	5.214884421127
3	4351	5104.132089386142	4.578357297563
3	4353	5108.240009248178	4.149365425702
3	4358	5109.365255517181	0.181439976161
3	4369	5114.234736138798	0.389142793488
3	4371	5119.329182249501	5.960891719052
3	4376	5122.350230433207	0.261880443884
3	4378	5123.193784573858	19.079266185483
3	4380	5127.570016160573	17.546466356894
3	4385	5138.812589923763	1.414081192421
3	4399	5158.348751029545	7.442220554812
3	4401	5161.042029456816	15.671443712335
3	4403	5162.567087591079	10.083208367169
3	4405	5163.280469482566	9.317136661602
3	4410	5174.622065154483	8.552224304578
3	4418	5176.867085209792	1.343202590724
3	4420	5183.652760770297	7.231598405852
3	4425	5199.663496088589	10.646184134462
3	4430	5208.32794983961	4.737861948386
3	4441	5229.012940409867	2.333218047694
3	4443	5230.739975221222	9.252926171723
3	4451	5237.611069630308	22.343617315029
3	4453	5242.224260869588	6.539887613853
3	4455	5244.30709585661	6.764535539734
3	4463	5265.465910502981	1.637067890428
3	4465	5271.829996617744	8.359248267712
3	4470	5272.750053743439	0.282148325824
3	4475	5276.884497975857	0.790646431713
3	4480	5288.62413198784	1.330076653385
3	4500	5306.33405642056	11.406302274706
3	4502	5312.025447930359	17.888367261555
3	4504	5314.494665107452	8.578382037967
3	4506	5316.70434323995	14.733317923507
3	4514	5326.264644469579	22.536313846434
3	4516	5326.278407106917	2.955878406689
3	4518	5326.387833354967	21.718923879628
3	4526	5333.038718437844	5.848028633778
3	4528	5333.090802105281	4.936911893737
3	4533	5346.579477517111	21.147906650042
3	4544	5352.585844092177	9.103182391655
3	4546	5353.098822214674	1.447372295365
3	4548	5353.303558155007	3.05881873365
3	4553	5356.834471440562	7.105609426224
3	4555	5358.974760625929	3.106507213253
3	4560	5360.749835055263	0.50491905992
3	4568	5362.923918759298	1.22697543306
3	4573	5363.711386346853	1.661163590188
3	4575	5363.944891742182	0.363989443705
3	4583	5367.31507363703	2.779757975619
3	4585	5371.409217467068	5.072905424568
3	4590	5374.821104813711	2.04185603309
3	4598	5377.004460873187	1.642522995996
3	4606	5383.822780997687	3.84818206337
3	4608	5387.407162648499	10.270639176566
3	4616	5391.96743290559	16.373678206179
3	4618	5392.083885044133	3.561659731152
3	4623	5400.17302756678	11.820654888156
3	4628	5401.446514633984	4.938803880135
3	4633	5402.005557013682	0.467100803485
3	4635	5402.678586453171	1.609251108292
3	4646	5408.094247617007	3.807825413627
3	4651	5411.302740989806	7.021882200468
3	4659	5413.730916008694	0.953101091118
3	4667	5420.845625624309	1.390946067887
3	4669	5421.415338725922	13.878373933058
3	4674	5422.13405703714	9.268195810851
3	4676	5427.641519065546	19.137772699874
3	4678	5431.640044783248	14.182070320956
3	4680	5431.691796011851	9.986806600954
3	4685	5436.700848233151	1.40898949487
3	4690	5442.409746666367	4.052536621865
3	4695	5459.020643123401	3.29120515019
3	4706	5479.088894287448	4.632651563567
3	4717	5488.151140941551	18.033732174388
3	4719	5488.653650890189	7.024898459814
3	4721	5489.143930751446	2.943699797337
3	4726	5501.029279693013	26.023735762969
3	4734	5507.712443944956	4.185552654744
3	4736	5508.075941260593	20.095752689567
3	4738	5508.176045225183	7.419591670506
3	4749	5531.042141809584	28.337723989626
3	4757	5538.298423480401	9.620124199321
3	4759	5538.466291625974	27.388757865597
3	4761	5539.147537700888	7.447035335453
3	4766	5540.52437305056	18.644680101811
3	4768	5544.010838000599	4.105274274817
3	4770	5548.423647321037	16.782459415469
3	4781	5558.098853241092	9.329615914548
3	4783	5559.899037367147	2.063907285497
3	4788	5565.175836897233	2.987950565884
3	4790	5570.163082897321	15.525202812551
3	4798	5579.894015423128	7.232111614451
3	4800	5582.062301180346	3.378161389958
3	4805	5596.687302732931	2.98286860276
3	4816	5607.448655097721	8.196937435853
3	4818	5616.731432280382	11.978044794182
3	4820	5620.049598659587	13.105181852284
3	4825	5628.555403837936	7.251694918267
3	4833	5632.430903617501	0.695346464883
3	4838	5641.114759931898	9.054531992038
3	4840	5642.160981674675	5.529049562691
3	4845	5647.631790680915	1.731544147696
3	4850	5651.252882090245	1.041181486996
3	4855	5663.840415383235	0.31594016538
3	4860	5664.926138342898	0.66480939466
3	4865	5680.364648311783	5.401072133941
3	4876	5687.819997214051	6.241996804139
3	4881	5693.390565712404	6.361789725698
3	4883	5693.448583906065	3.065159957409
3	4885	5696.2175645363	12.556626203953
3	4890	5716.51034898128	1.092326729326
3	4898	5728.450865473591	11.358484525853
3	4900	5729.672015376616	2.586404916291
3	4905	5738.659727092489	0.508134661915
3	4913	5748.108773471335	2.619469642998
3	4918	5750.65791369578	0.824982975228
3	4923	5756.895693406833	5.828951835304
3	4928	5770.307151406782	4.126382349203
3	4939	5777.46078747099	5.517332911353
3	4941	5779.223990469685	3.87084767139
3	4946	5781.030301811208	1.780956435367
3	4951	5788.630529902778	16.880304201646
3	4962	5798.606052057644	11.608810276292
3	4967	5800.683944947373	0.804018663472
3	4969	5801.869893112817	56.595943035409
3	4974	5803.824780031229	10.618741710836
3	4976	5804.540138425336	9.147066036402
3	4981	5810.874052500285	1.77885498238
3	4983	5811.877768406635	15.218621594494
3	4988	5816.358640782345	13.885687830677
3	4990	5818.870964447572	6.668409902395
3	4995	5819.234998058998	0.23887160497
3	5001	5842.533710124219	4.392871196116
