version 2
run General-7-20170504-11:38:03-96584
attr configname General
attr datetime 20170504-11:38:03
attr experiment General
attr inifile omnetpp.ini
attr iterationvars ""
attr iterationvars2 $repetition=7
attr measurement ""
attr network Toll_road
attr processid 96584
attr repetition 7
attr replication #7
attr resultdir results
attr runnumber 7
attr seedset 7
param **.numBooths 3
param **.queue[*].serviceTime exponential(5.11s)
param **.source.interArrivalTime exponential(5.854s)
param **.source.numJobs 1000

vector 1  Toll_road.queue[1]  jobsProcessed:vector  ETV
attr interpolationmode  none
attr source  queueingTime
attr title  "jobs processed, vector"
vector 0  Toll_road.queue[0]  jobsProcessed:vector  ETV
attr interpolationmode  none
attr source  queueingTime
attr title  "jobs processed, vector"
vector 3  Toll_road.sink  lifeTime:vector  ETV
attr interpolationmode  none
attr title  "lifetime of arrived jobs, vector"
attr unit  s
vector 2  Toll_road.queue[2]  jobsProcessed:vector  ETV
attr interpolationmode  none
attr source  queueingTime
attr title  "jobs processed, vector"
0	6	1.974506701541	0
0	13	5.352158465621	0
0	24	10.410489902671	0
0	32	18.731154417157	1.664485659823
0	43	26.441421826729	0
0	61	64.037853032841	0
0	78	96.092049718167	0
0	91	107.522970021633	0
0	103	129.158555538947	0
0	108	139.810803309071	0
0	126	164.96196258465	0
0	158	213.106137667858	0
0	169	220.853438347878	0
0	178	239.068478770976	0
0	183	257.092518648307	0
0	232	314.115720601409	0
0	265	339.256161358877	0
0	286	363.380295534418	0
0	303	383.4951268886	0
0	331	425.715568763789	0
0	346	436.781313808564	0
0	358	441.439370761781	0
0	362	451.37699315468	1.014273594909
0	383	464.940532399044	0
0	408	501.769024232331	0
0	412	510.197475023799	2.026913787078
0	423	526.156079296463	0
0	443	561.176624869336	0
0	466	578.344230351664	0
0	486	619.260179405805	0
0	492	626.802369680013	3.950156343522
0	523	664.260852027781	0
0	538	679.693270470895	0
0	543	684.175679158976	0
0	571	735.09318078452	0
0	616	803.686206991207	0
0	623	815.845905566696	0
0	650	841.720277597577	0
0	658	844.57307499719	0
0	670	854.126329847222	0
0	703	894.254014577793	0
0	714	898.232229470629	0
0	733	909.621160145329	8.187430318055
0	750	920.910480746762	18.145290827935
0	760	927.66942620638	12.065106795611
0	765	932.136461640257	9.879502837142
0	767	936.796542563541	6.131021722317
0	788	974.413853835594	0
0	798	982.562324928074	0
0	841	1024.839305352757	0
0	854	1048.15444009375	0
0	867	1056.214228861193	0
0	883	1084.521320791376	0
0	901	1133.856910242368	0
0	916	1139.983857534635	4.550268034264
0	921	1148.835599521636	13.296507806457
0	928	1151.434028451413	0.005416051435
0	936	1163.389002902487	0
0	957	1174.724154277172	10.055202642106
0	971	1187.839912441415	0
0	978	1194.553928825603	0
0	982	1198.417018066787	3.223116309491
0	988	1211.210791615778	0
0	995	1215.00739063103	1.889889775926
0	1011	1231.601401951645	0
0	1033	1248.016224927118	0
0	1037	1257.342399745173	8.644459541404
0	1053	1275.822199505108	0
0	1062	1287.537613285479	8.035958734304
0	1071	1289.600237218571	0
0	1084	1304.653267861334	0
0	1098	1324.26799865848	0
0	1111	1331.91382414493	0
0	1147	1386.968775274567	0
0	1188	1464.296400108677	0
0	1192	1467.233756012284	1.318083350741
0	1198	1470.286527294791	0
0	1209	1482.854816756753	0
0	1238	1543.922001637746	0
0	1259	1578.208340723064	0
0	1304	1645.755794273584	0
0	1308	1653.317620457269	4.872315838938
0	1318	1658.560584987795	0
0	1336	1681.191485968143	0
0	1343	1682.622862336398	1.209461253672
0	1345	1684.103915159403	2.078522433768
0	1354	1688.924122279665	0
0	1369	1699.071271836764	0
0	1381	1715.648779673662	0
0	1388	1740.438872522052	0
0	1393	1741.647470021261	0
0	1403	1749.64347623132	0
0	1418	1762.91226860345	0
0	1436	1788.259309449915	0
0	1451	1809.195192987938	0
0	1455	1810.818857960055	0.585315878871
0	1471	1837.969538818752	0
0	1477	1843.358311140791	4.685427803606
0	1483	1865.403241931501	0
0	1524	1917.889093110355	0
0	1530	1924.102544810203	5.112317818587
0	1539	1929.03159944544	0
0	1548	1937.037030444319	0
0	1564	1943.019253620354	0
0	1570	1948.667002299124	0.011394998173
0	1579	1956.028186828715	0
0	1607	1978.260450330636	0
0	1646	2039.764560843729	0
0	1653	2049.972801602447	0
0	1693	2081.920021943641	0
0	1723	2105.059123260394	0
0	1749	2132.840200085651	0
0	1766	2157.876571494826	0
0	1788	2167.072947819496	0
0	1814	2190.444561174027	0
0	1829	2205.264205191224	0
0	1836	2209.131911138044	0
0	1908	2303.324002363395	0
0	1936	2329.722990660323	0
0	1943	2335.352847450449	0
0	1947	2337.230130221565	0.075581368791
0	1953	2348.481384332963	0
0	1958	2357.332339702367	0
0	1970	2365.561495960975	4.521069911617
0	1979	2372.77918226433	0
0	1984	2373.812601260187	0
0	1992	2378.143127406326	1.182272154275
0	2028	2430.256674494162	0
0	2032	2432.784579231512	0.065025461518
0	2038	2439.773895871349	0
0	2043	2465.77046140113	0
0	2062	2490.036542346482	0
0	2069	2495.855045214949	0
0	2091	2530.371072212402	0
0	2096	2542.17815635118	0
0	2102	2544.177694979363	0.198800452309
0	2121	2552.770975755524	4.413855585267
0	2123	2553.071652251855	0.317737691628
0	2146	2590.918535816579	0
0	2157	2605.057928251785	0.13512638902
0	2172	2620.713663285009	0
0	2189	2637.047225983006	0
0	2201	2643.61575685933	2.250653820455
0	2206	2651.218632091152	0.56732927785
0	2227	2678.891667490082	0
0	2266	2712.296337768039	0
0	2272	2721.024560127188	3.705034484262
0	2303	2755.11498252705	0
0	2310	2761.801275940944	4.6472593001
0	2327	2769.894735553228	0
0	2342	2780.020533094931	0
0	2351	2785.508039735208	0
0	2366	2796.420249599048	6.751898736051
0	2374	2802.390591009976	0
0	2385	2807.314191389462	4.649775783022
0	2391	2813.486633581631	0
0	2401	2834.537427035469	0
0	2405	2836.160486626783	1.22812623233
0	2431	2867.690736299825	0
0	2439	2870.323512429433	0
0	2460	2896.005817075262	13.019530325007
0	2462	2898.792685689548	5.831449248587
0	2467	2904.49641579372	3.052435829489
0	2489	2926.277909794225	0
0	2503	2936.766393264355	0
0	2511	2956.768341433481	0
0	2531	3004.74474943767	0
0	2543	3007.696847493376	2.678092982961
0	2548	3009.084227806269	2.532656284737
0	2558	3013.899354348701	3.992340234118
0	2573	3021.063586948277	0
0	2608	3071.992497988191	0
0	2613	3084.152983652944	0
0	2630	3102.347412966599	7.727500061302
0	2726	3221.357400154273	0
0	2731	3226.076806178204	0
0	2749	3252.225703652709	0
0	2760	3259.665898003486	3.99760709466
0	2765	3263.672417511731	2.924970514072
0	2776	3271.510244570265	7.272890553963
0	2783	3276.711506651672	8.283150595483
0	2785	3279.397601624616	8.873585319957
0	2797	3288.330949633137	15.961538378415
0	2803	3300.900369508511	0
0	2808	3309.493613798154	0
0	2824	3321.010675902321	0
0	2854	3333.332551929967	0
0	2867	3343.464257400532	2.698553196116
0	2886	3365.892125291433	0
0	2907	3389.073403753437	0
0	2918	3395.016294313532	0
0	2923	3403.691226770355	0
0	2943	3433.867009043602	0
0	2953	3450.650934582556	0
0	2957	3452.815160481637	0.218792489729
0	2972	3483.198599080548	28.846814629601
0	2983	3489.494439441738	0
0	3013	3534.103081801546	0
0	3021	3540.456730618407	0
0	3034	3551.939977821508	0
0	3058	3575.271524981141	0
0	3083	3588.060764278018	0
0	3095	3595.690166629317	0
0	3116	3612.808774275525	0
0	3138	3642.836233779199	0
0	3159	3656.212362441259	0
0	3213	3734.927337313287	0
0	3228	3755.166733499757	0
0	3240	3767.432709031595	10.466927375778
0	3259	3794.341446242169	0
0	3269	3798.831823707758	1.477732631197
0	3274	3802.120611906548	1.407851300002
0	3281	3812.023785043207	5.307889717777
0	3295	3822.600931276688	5.567571960822
0	3319	3862.340169902765	0
0	3344	3865.747075679728	2.401793479968
0	3359	3878.656946602158	0
0	3369	3887.039881542541	0
0	3375	3892.406926072934	5.331021911381
0	3388	3906.395824600145	0
0	3408	3938.426809318449	0
0	3424	3947.41671743151	0
0	3441	3959.139944108666	0
0	3461	3996.564833540645	0
0	3473	4007.784131241595	0
0	3478	4012.490999745808	0
0	3523	4094.131413476964	0
0	3547	4120.378666292158	0
0	3561	4136.079642300301	0
0	3577	4169.485328048734	0
0	3592	4183.362005460596	0
0	3602	4189.090225041878	0
0	3606	4190.866864733431	1.671322417937
0	3619	4203.260944319539	0
0	3673	4284.741729260828	0
0	3683	4301.138979989782	0
0	3703	4322.556562367896	0
0	3711	4328.997114460313	0
0	3728	4358.078954757941	0
0	3738	4372.56327466297	0
0	3746	4385.423139852745	0
0	3774	4397.688325691281	0
0	3792	4407.533277433118	0
0	3804	4412.930180059945	0
0	3818	4419.21100557839	2.216455731712
0	3827	4420.574045675164	0
0	3851	4439.973348723253	0
0	3858	4450.935025966538	0
0	3862	4453.590358402646	2.124896744883
0	3888	4497.642535217159	0
0	3907	4513.356826701062	0
0	3961	4573.121360908072	0
0	3974	4590.877403805317	0
0	3980	4595.661792597742	0.375377459772
0	4024	4632.565346056095	0
0	4038	4640.480362281125	4.416819062237
0	4050	4658.753374950403	21.288622577765
0	4052	4660.418222162739	11.213920334325
0	4058	4676.590117577885	0
0	4073	4687.230901308368	0
0	4098	4735.753980585325	0
0	4115	4741.813516115465	2.519162981132
0	4120	4745.726235756932	4.875969657169
0	4154	4798.620232921879	0
0	4163	4801.538850080846	0
0	4173	4830.504418707134	0
0	4186	4838.174925379299	0
0	4218	4893.73869364049	0
0	4223	4899.473710033753	0
0	4241	4920.790534133099	0
0	4256	4935.382601416689	0
0	4286	4967.787586961756	0
0	4293	4979.446629454623	0
0	4306	5020.283326887982	0
0	4311	5023.850189038523	0
0	4346	5053.951816856921	0
0	4381	5077.378229525316	0
0	4390	5088.651654975024	1.075221122435
0	4408	5100.218077078398	0
0	4418	5112.085422302792	0
0	4423	5115.112251071347	0
0	4444	5151.079736297215	0
0	4456	5175.376840526867	0
0	4471	5186.538890813575	0
0	4487	5190.676162279064	3.082714712645
0	4504	5218.453141298643	0
0	4521	5243.216079492666	0
0	4538	5263.950530763843	0
0	4553	5277.353274932204	0
0	4557	5290.652022246418	11.382412231337
0	4573	5313.329190524119	0
0	4580	5317.301137369664	1.985261305192
0	4598	5335.474485609813	0
0	4627	5357.478134441266	0
0	4682	5447.736174024814	0
0	4696	5462.347591881598	0
0	4723	5529.56564926268	0
0	4731	5534.125835168641	0
0	4735	5535.185768476535	0.987178697931
0	4752	5547.498110161055	0
0	4764	5572.008879116715	0
0	4802	5613.827066221346	0
0	4859	5666.806708924238	0
0	4871	5680.926919664369	0
0	4882	5689.524221351916	8.348409730259
0	4888	5691.094210949034	0
0	4906	5714.911595490585	0
0	4933	5766.17186235887	0
0	4943	5788.49420435217	0
0	4971	5806.263185155726	0
0	4979	5813.505243530845	0
0	4998	5845.552532738023	0
1	3	0.464672439738	0
1	48	40.511156132052	0
1	52	54.065648331444	11.068845441782
1	57	61.165226489458	2.499378389537
1	71	79.849188482186	0
1	83	100.430473159561	0
1	113	158.35647245385	0
1	118	159.257904910747	0
1	123	162.787980292059	0
1	136	187.258563172921	0
1	161	213.114496584379	0
1	193	281.484371877094	0
1	198	284.961846670827	0
1	203	291.306711337183	0
1	211	296.346776164062	0
1	216	300.240810402753	0
1	223	306.956086877034	0
1	233	314.830203686369	4.911214205002
1	242	325.181725489592	14.203605675992
1	254	334.559798368709	0
1	270	345.229885266776	9.384436644539
1	272	346.586011052689	8.912866751613
1	278	351.460755297902	0
1	282	357.915526800122	5.323093501534
1	298	373.685370901605	0
1	308	400.324686548238	0
1	318	404.005495753308	3.432237359736
1	320	405.228950203808	4.613724998813
1	322	409.21305766092	5.406406768036
1	338	430.888351522895	0
1	342	432.226784350475	0.535642075086
1	350	440.402225700375	2.135728105753
1	371	458.735623486022	0
1	378	463.063965276129	0
1	386	469.326725467878	0
1	391	483.369903012767	0
1	418	525.102451315434	0
1	433	539.45129696635	0
1	448	562.124473859998	0
1	458	573.378053388643	0
1	463	578.27479694438	0
1	471	594.878825137194	0
1	478	616.764885691625	0
1	508	651.241764024016	0
1	513	654.221397500268	0
1	518	657.725132749444	0
1	528	672.144210738431	0
1	533	675.313893488632	0
1	549	689.371035279979	0
1	576	737.793161408405	0
1	583	748.06359708005	0
1	593	779.568021400099	0
1	597	783.518626438037	3.939737869195
1	609	795.771846759293	0
1	626	822.100456558705	0
1	630	823.724022510889	1.404876159638
1	655	842.917065495361	0
1	677	860.473547585166	0
1	687	874.640514925797	5.998999645173
1	709	896.480707854865	0
1	724	902.196015283435	0
1	737	911.024933024934	0
1	779	953.79640362165	0
1	793	977.126744693866	0
1	806	991.77128534154	0
1	813	994.107382501163	0
1	831	1011.762514205889	5.15470261753
1	833	1012.502796268578	3.102877608737
1	872	1057.160279264396	0
1	888	1101.877155773057	0
1	893	1106.033446632286	0
1	920	1147.176179404331	0
1	945	1166.745058780709	0
1	991	1211.914896195086	0
1	1008	1225.512137341729	0
1	1026	1240.047065104376	0
1	1044	1263.76295927579	0
1	1059	1283.70811303307	0
1	1074	1291.190182014726	0
1	1087	1304.668651014899	0
1	1128	1345.478597027148	0
1	1133	1360.952580676722	0
1	1161	1408.721410593951	0
1	1168	1434.473929937216	0
1	1173	1443.353126993184	0
1	1203	1479.918416506748	0
1	1212	1501.686958460402	21.595238424008
1	1223	1518.986241022067	0
1	1248	1571.097773291059	0
1	1263	1581.910369235834	0.741117296384
1	1272	1596.618869984835	1.005035268344
1	1278	1611.310489023438	0
1	1283	1630.268744836698	0
1	1291	1639.214143790996	0
1	1312	1655.092668364818	10.791728420543
1	1321	1660.234396399553	0
1	1333	1676.18345645882	0
1	1355	1690.23216002769	3.781935906311
1	1372	1704.056091540862	6.801570930965
1	1396	1743.951006483878	0
1	1428	1786.456380670404	0
1	1443	1807.123822780654	0
1	1447	1808.619923390505	0.15860672388
1	1468	1828.923568952291	0
1	1486	1868.067458854063	0
1	1493	1887.628791139054	0
1	1498	1888.04098343415	0
1	1506	1903.352896486976	0
1	1556	1939.945485500777	0
1	1582	1960.246496368375	7.907434045196
1	1613	1991.60150966227	24.145123069351
1	1617	2002.997359702672	32.850992198798
1	1623	2019.339997323657	0
1	1633	2031.603331368947	8.857621980277
1	1656	2052.849818334227	0
1	1680	2066.782499613259	9.166235306381
1	1682	2067.340056024079	4.293959063059
1	1696	2088.38028034399	0
1	1709	2100.098013526439	0
1	1715	2103.230267091545	1.214755692728
1	1726	2105.494587418245	0
1	1736	2117.669734074643	0
1	1746	2129.292560169946	0
1	1783	2166.107061477787	0
1	1794	2171.952031015283	0
1	1811	2189.395721129873	0
1	1825	2199.723394717452	5.142709619811
1	1830	2205.601570848276	8.998066542815
1	1848	2223.534312068373	0
1	1855	2226.993012494806	0.349438731991
1	1867	2242.511539136419	2.815534001048
1	1873	2246.193180359425	0
1	1880	2251.350056550612	4.063643210215
1	1891	2266.192422449121	0
1	1898	2268.03218121459	0
1	1903	2280.220950701141	0
1	1913	2306.214594706218	0
1	1923	2310.299682614181	0
1	1969	2364.12918892692	0
1	1985	2375.191571037158	9.400149481652
1	2018	2417.882585425021	0
1	2048	2480.281102350579	0
1	2112	2549.258203924628	0
1	2117	2552.085789050301	0
1	2141	2587.404397062779	0
1	2181	2625.394753571551	0
1	2218	2667.441369142569	38.950162344572
1	2220	2670.974871298963	27.782139336767
1	2230	2679.949325128145	19.994868584528
1	2232	2682.402663014691	5.246914513719
1	2237	2689.790843241064	4.206164164338
1	2247	2698.386518476471	2.244398599089
1	2281	2724.864426369119	0
1	2287	2735.416845343588	9.885643468164
1	2298	2752.320604462377	0
1	2309	2760.544390825469	0
1	2331	2771.469294749937	9.351239064519
1	2338	2777.166751322391	14.757909986736
1	2347	2784.104759078753	13.129653846489
1	2364	2793.888374524702	2.294362316383
1	2370	2798.830204020383	6.611608930006
1	2378	2803.21175371026	9.710208893235
1	2383	2805.029051648966	0.120732297124
1	2398	2829.49830994391	0
1	2418	2856.719163915393	0
1	2434	2869.854829320522	0
1	2448	2876.48196764498	5.964172384921
1	2453	2885.84995982636	12.334256322475
1	2473	2909.858055304045	0
1	2480	2920.350055026931	7.574565089353
1	2492	2932.275533258389	16.401045533637
1	2498	2933.024633194796	0
1	2508	2947.442221970023	0
1	2518	2980.937703839263	0
1	2523	2997.257801072087	0
1	2527	3002.413055949632	1.160309782795
1	2568	3019.381695215453	0
1	2581	3034.183276691236	0
1	2588	3040.230861664075	0
1	2593	3042.068398357451	0
1	2616	3088.4260300192	0
1	2621	3093.213990509556	0
1	2639	3108.462705963677	0
1	2674	3158.036398766559	0
1	2688	3179.316243133384	0
1	2692	3186.915176000992	6.727708999841
1	2698	3193.479106340796	0
1	2705	3201.291612688456	5.560351992667
1	2713	3208.926494825318	0
1	2720	3216.963125645786	5.734956708969
1	2741	3232.75344677147	0
1	2759	3259.255079174695	0
1	2789	3281.653176316539	0
1	2811	3312.738840275872	0
1	2821	3319.895831166076	0
1	2830	3324.335227040174	0.759020984749
1	2841	3327.08887802598	0
1	2845	3328.939187713554	0.771009669974
1	2855	3334.394226966322	3.437473133072
1	2860	3337.144519891865	1.099927623657
1	2889	3371.128733893235	0
1	2901	3385.229468439018	0
1	2931	3418.919335648794	0
1	2936	3420.395569407187	0
1	2948	3441.731867949435	0
1	2964	3476.039429373739	0
1	2969	3479.128106972593	0
1	2988	3491.827081514506	0
1	2996	3513.357879455769	0
1	3002	3519.819463481693	4.272000182025
1	3008	3528.269720093951	0
1	3018	3536.084550147459	0
1	3039	3558.834520986212	0
1	3052	3566.465404562184	6.172677613687
1	3069	3577.633683040226	16.292655894374
1	3074	3581.881461000282	16.332940314919
1	3086	3590.655600878901	24.319978037088
1	3088	3591.452439188698	15.263443982085
1	3096	3596.160017817157	19.638044637537
1	3102	3602.701065894021	0
1	3123	3619.529953245927	0
1	3146	3649.405078280829	0
1	3166	3660.266556798184	0
1	3170	3662.600022209439	0.223271019342
1	3178	3678.622508084168	0
1	3183	3679.035153011694	0
1	3198	3709.317934482227	0
1	3207	3715.945004000934	1.980450663663
1	3216	3736.290185706476	0
1	3221	3739.178809275709	0
1	3234	3760.299423256013	0
1	3238	3765.828915780326	0.548239156349
1	3248	3779.525172291279	0
1	3255	3793.59986066048	10.616229197522
1	3279	3811.632791693096	25.48882486453
1	3283	3815.932166036823	20.758372038622
1	3285	3816.683015519105	18.327548522113
1	3294	3822.383283814412	0
1	3313	3862.014845648123	0
1	3329	3862.851526544531	0.607806853745
1	3342	3865.342095351407	2.708273450596
1	3346	3866.510362670464	3.73126748007
1	3362	3879.642744757766	14.303555704335
1	3381	3893.512037167018	0
1	3393	3926.996576480734	0
1	3398	3928.632735890033	0
1	3402	3934.330758946706	0.7140141267
1	3416	3944.923942258162	0
1	3431	3950.215589793899	0
1	3448	3980.991803912608	0
1	3468	4005.759167113408	0
1	3493	4038.621166964755	0
1	3513	4079.948120750502	0
1	3536	4109.181767414836	0
1	3541	4113.401882322389	0
1	3552	4127.370343838167	7.932220356885
1	3558	4132.849948120498	0
1	3568	4160.596890086926	0
1	3581	4172.799144768952	6.928444878743
1	3583	4175.635393221656	7.95427383814
1	3613	4200.638943402245	30.749448867973
1	3620	4204.47313446817	23.871263187815
1	3627	4213.962216197815	2.159074438956
1	3633	4230.320797458625	0
1	3638	4232.59892077474	0
1	3646	4264.922074901877	0
1	3658	4270.317520093411	0
1	3666	4279.462257001025	0
1	3678	4294.803754638064	0
1	3688	4309.396815756029	0
1	3692	4312.030649740644	0.128911209678
1	3697	4320.057124593169	6.655975844649
1	3718	4337.718121663636	0
1	3733	4371.113652917988	0
1	3759	4391.349575383479	0
1	3768	4396.535525297132	0
1	3793	4408.664334554832	8.242267670768
1	3798	4410.647321739281	9.381698649371
1	3838	4425.303090638091	7.476053748202
1	3845	4435.369218720889	16.130241932419
1	3847	4435.639693784474	12.22740104859
1	3868	4456.896674944326	0
1	3873	4460.98046954427	0
1	3883	4487.10171108904	0
1	3896	4504.404925708205	0
1	3904	4508.782204083689	0
1	3913	4519.219346197731	1.894952028147
1	3926	4526.839027547262	0
1	3938	4543.284127514908	0
1	3943	4557.13091438211	0
1	3947	4560.758511641852	0.532685830909
1	3964	4573.257972957753	0
1	3975	4591.189707568443	11.313651949871
1	3998	4611.211107738082	0
1	4016	4628.517263001799	0
1	4020	4630.956883390962	0.629879460089
1	4047	4650.42388393152	0
1	4064	4680.041107498155	0
1	4086	4718.550187725172	0
1	4091	4721.543868525178	0
1	4138	4773.172550298122	0
1	4143	4776.767998069692	0
1	4150	4788.605156451734	7.66920133617
1	4155	4798.764956800051	14.908545037964
1	4166	4804.241471947672	0
1	4176	4832.523276337813	0
1	4183	4837.744845836868	0
1	4203	4882.667092794418	0
1	4210	4887.604151825036	1.582113017306
1	4212	4892.419108382748	5.999467445331
1	4226	4900.050413074142	0
1	4238	4916.20705139747	0
1	4245	4922.840757749377	1.603175784173
1	4261	4941.955662747606	0
1	4272	4953.131590016237	6.507343119257
1	4277	4957.593619872431	4.247719859989
1	4282	4963.220501508435	0.083292729767
1	4303	5011.566669350548	0
1	4321	5026.114731826593	0
1	4331	5032.714249985489	0
1	4338	5049.384571975437	0
1	4354	5058.719629914393	0
1	4384	5081.070929809994	0
1	4396	5094.058532433277	0
1	4431	5129.09554462218	0
1	4437	5137.881119291546	7.402207855272
1	4453	5167.399555948138	0
1	4465	5184.171119616497	3.34920883596
1	4491	5190.817473984134	0
1	4498	5209.017666226865	0
1	4516	5226.16314544174	0
1	4526	5249.397983339824	0
1	4531	5253.121040390584	0
1	4541	5265.892969443107	0
1	4563	5300.988209223425	0
1	4576	5313.662893528735	0
1	4586	5319.938774197584	0
1	4608	5341.221470119735	0
1	4613	5344.746012438677	0
1	4631	5358.605266312452	11.492139322505
1	4638	5366.711567305106	12.84337945267
1	4645	5381.007479507938	22.704894630171
1	4647	5385.326268045944	25.633873186383
1	4663	5424.905237213201	0
1	4670	5428.848698302764	2.871175289755
1	4672	5432.560110633021	6.293021869947
1	4683	5448.40137244516	11.521607144387
1	4687	5452.006718552302	12.897070433619
1	4701	5469.368881125008	0
1	4709	5482.777430584897	0
1	4718	5498.993877511847	0
1	4769	5576.307005110471	0
1	4792	5599.257696676468	0
1	4833	5646.455014140421	0
1	4848	5659.478443576765	0
1	4853	5665.113958013778	0
1	4893	5704.022696221702	0
1	4901	5710.677771660987	0
1	4918	5736.19236362188	0
1	4923	5742.748084352094	0
1	4927	5758.629655733038	0.884986614684
1	4936	5768.215088404773	0
1	4948	5795.33021443796	0
1	4955	5797.446615553807	1.206549468842
1	4968	5804.085189910694	0
1	4983	5818.899624353889	8.395902564754
1	4987	5819.797296744218	3.136947053215
2	18	9.878847558942	0
2	25	11.476104033821	1.159502266778
2	38	19.873983204465	0
2	66	75.194336048255	0
2	88	106.90310581399	0
2	98	111.47352687455	0
2	133	179.820735806939	0
2	142	201.715886215176	0.589352302951
2	147	205.298450612461	1.710100408608
2	152	210.439930138888	3.597245384707
2	166	216.503543288718	0
2	186	261.864227719357	0
2	208	295.758556192457	0
2	237	317.595489486217	0
2	248	326.91243682452	0
2	255	334.608303989163	4.08187668073
2	293	369.674134858283	0
2	328	420.236758644224	0
2	368	454.282686386659	0
2	396	489.183249957181	0
2	402	498.721368734852	2.102209461515
2	428	529.79461197018	0
2	438	549.544946707938	0
2	453	566.394117998854	0
2	481	616.827150440284	0
2	498	631.46411649022	0
2	502	641.993971064301	5.023457234166
2	546	688.348959759992	0
2	558	697.977530812567	0
2	562	717.492994129817	0.874970621266
2	568	731.309939124369	0
2	588	764.588751717614	0
2	603	787.740179951191	0
2	612	802.681279078979	6.945703006183
2	634	825.55485242348	0
2	663	848.433131125078	17.377402887211
2	673	859.979795591717	27.56120214317
2	678	865.881222346053	25.983950725997
2	683	870.955642737384	19.719691364373
2	691	875.233346884814	0
2	698	883.974026166358	0
2	706	896.253783898933	0
2	732	908.848528815957	0
2	747	917.618419015661	0
2	757	922.467178700329	0
2	773	943.811779874476	0
2	782	965.347654561346	19.129693350382
2	801	984.883121951393	0
2	816	999.726356806709	0
2	829	1011.707709492463	6.120795806879
2	837	1020.964415299247	12.889816770747
2	848	1040.501135165096	0
2	857	1054.160125168132	13.400656063231
2	875	1065.072447446286	10.083271148906
2	877	1065.318515347937	9.760612071231
2	898	1125.427154516361	0
2	914	1139.647251677293	4.180540638482
2	930	1157.592606383434	21.654016643752
2	946	1167.981255733989	3.914710147162
2	953	1171.172859811346	0.532664292218
2	963	1181.113023584333	0
2	968	1187.507955815345	0
2	1001	1222.337246484681	0
2	1014	1232.662023362564	0
2	1022	1236.837097047144	0.688716056277
2	1041	1262.774121571757	0
2	1068	1289.229553622965	0
2	1088	1304.999536992905	9.785190824732
2	1103	1325.842001336049	0
2	1108	1328.992448810761	0
2	1118	1339.471694600045	0
2	1122	1342.732829791184	3.236141639208
2	1136	1360.982347962962	0
2	1148	1395.602966740181	32.812679663028
2	1152	1404.974462257877	38.457781313703
2	1158	1406.102521013477	0
2	1176	1446.580743990506	0
2	1182	1450.550533384424	1.592512375827
2	1218	1506.116571217143	0
2	1228	1523.090604514203	0
2	1232	1527.398064024494	1.791428833904
2	1241	1561.51140012261	0
2	1251	1572.34844108568	0
2	1255	1577.811870284552	0.689730883768
2	1288	1637.362093317905	0
2	1296	1642.839934436609	0
2	1328	1670.539525419145	0
2	1359	1690.2598479926	0
2	1378	1713.442882971943	0
2	1408	1752.587949353067	0
2	1412	1755.053297631225	1.526574775455
2	1423	1769.932033941966	0
2	1431	1786.584117815941	0
2	1463	1821.360358265811	0
2	1503	1901.678364317761	0
2	1518	1915.323429187089	11.161524084596
2	1520	1916.100559238066	6.217127229928
2	1525	1918.049601559033	4.94873160564
2	1542	1934.031890360996	5.250069122046
2	1551	1939.140775595978	0
2	1559	1940.002797746086	0
2	1586	1961.146789546992	0
2	1590	1964.919907718757	2.148062862442
2	1601	1973.815751195737	6.539198596387
2	1612	1989.884244417012	0
2	1626	2019.788864431219	0
2	1640	2033.221833005266	9.999022811084
2	1642	2039.689393104998	7.754394587901
2	1662	2058.390262109782	0
2	1667	2060.251444195282	0
2	1677	2066.347723227573	0
2	1688	2075.624925060909	0
2	1701	2092.407527866653	0
2	1706	2097.267058767211	0
2	1731	2113.237083475107	0
2	1741	2126.802587837119	0
2	1758	2147.345382802368	0
2	1763	2154.377737855807	0
2	1771	2158.549256939445	0
2	1777	2165.230725627222	4.475018838894
2	1791	2168.604919346448	0
2	1803	2184.998967327988	0
2	1808	2188.794855326813	0
2	1839	2209.458694889684	0
2	1854	2226.902384866317	0
2	1860	2234.635859453805	3.378615556958
2	1876	2247.099274679871	0
2	1888	2260.108787358869	0
2	1918	2309.91868465456	0
2	1928	2312.230128798474	0
2	1933	2321.837510791972	0
2	1961	2358.508510709559	0
2	1996	2378.174697654765	0
2	2002	2388.974656810683	0.778660262374
2	2008	2410.85699147925	0
2	2013	2415.051806971393	0
2	2021	2421.489603324944	0
2	2051	2484.613457081503	0
2	2063	2492.403663412902	6.165802168579
2	2072	2502.210294913038	12.233833306669
2	2080	2515.267676421965	10.408523589944
2	2082	2515.396755595355	1.746399335927
2	2088	2527.943488793357	0
2	2106	2548.145240038121	0
2	2131	2558.574310275188	0
2	2138	2585.357792952519	0
2	2150	2594.527619649561	1.334483743361
2	2163	2612.65067869065	0
2	2173	2622.433910998043	9.381033809547
2	2175	2623.289800797964	3.95400411299
2	2192	2637.744991658594	0
2	2215	2664.445421055779	0
2	2244	2696.571554195512	0
2	2253	2701.754726231402	0
2	2257	2706.08123174465	1.420828402847
2	2263	2711.290618187909	0
2	2276	2722.254971798808	0
2	2293	2740.124085286199	0
2	2320	2766.554159678822	0
2	2337	2776.682342300928	0
2	2413	2842.564785544085	0
2	2423	2865.183432484216	0
2	2428	2867.370369741763	0
2	2484	2920.920388856546	0
2	2542	3007.204440987402	0
2	2553	3011.167806536748	3.201335352895
2	2560	3015.086764668322	1.582188075524
2	2578	3029.081170807808	0
2	2598	3046.999508286628	0
2	2602	3062.02524134698	11.501712135539
2	2629	3101.985522027717	0
2	2635	3105.072508601925	0.552940640685
2	2647	3113.541535935889	3.378687721435
2	2653	3127.847547824402	0
2	2658	3133.162771862636	0
2	2663	3141.987883933969	0
2	2668	3153.737952295186	0
2	2675	3159.442559475784	3.956778169799
2	2683	3163.211639908983	0
2	2704	3201.06727098472	0
2	2716	3210.733042318589	0
2	2737	3231.885135768194	3.838436271923
2	2746	3250.823064955107	0
2	2792	3282.680396797724	0
2	2818	3319.789114695526	0
2	2836	3325.291470722472	0
2	2873	3350.220676221518	0
2	2878	3356.544009529121	0
2	2883	3364.672133256079	0
2	2897	3385.178678528904	7.266503130155
2	2912	3392.526128288332	5.252975313974
2	2928	3415.205519056365	0
2	2978	3483.883108693068	0
2	2993	3512.215424035202	0
2	3028	3550.439986573781	0
2	3054	3569.136865899336	17.945216256102
2	3073	3580.757342777973	0
2	3079	3585.385048414629	2.330077200105
2	3106	3604.403785569083	10.9267117884
2	3108	3606.268522675327	2.05553865211
2	3128	3628.053308531598	0
2	3132	3629.920498857714	1.6262481891
2	3141	3646.706942792542	0
2	3153	3652.448020330955	0
2	3160	3656.274740999872	2.168161681942
2	3188	3687.139603966533	0
2	3193	3689.852554425132	0
2	3201	3709.843348316864	0
2	3301	3829.497604221107	0
2	3308	3857.397299528326	0
2	3328	3862.817552233288	0
2	3338	3864.527587853929	0
2	3354	3875.639359457523	0
2	3366	3885.997834363591	0
2	3413	3942.932497967222	0
2	3427	3950.178086082846	3.074610963452
2	3438	3957.206162813679	0
2	3453	3994.458833615161	0
2	3458	3996.130407624232	0
2	3481	4016.483306987355	0
2	3488	4023.019176112128	0
2	3498	4052.959211603753	0
2	3503	4069.904332957828	0
2	3507	4073.797292382437	3.754032173183
2	3518	4087.740426936841	0
2	3526	4094.592228314083	0
2	3533	4104.240120306877	0
2	3595	4184.722388364114	0
2	3612	4196.291756673948	0
2	3643	4261.519999309947	0
2	3653	4268.08862605932	0
2	3663	4274.214407231522	0
2	3706	4323.369225814807	0
2	3723	4346.589233936363	0
2	3743	4385.053911841061	0
2	3751	4388.852159485745	0
2	3756	4390.086994819784	0
2	3771	4397.298422880428	0
2	3785	4402.188116554054	0
2	3797	4409.779056954785	0
2	3812	4417.380242583704	0
2	3830	4422.068479681367	0
2	3842	4427.802132748504	0
2	3876	4468.860534324269	0
2	3893	4503.622494586036	0
2	3918	4520.688087761299	12.96164405773
2	3920	4520.747866469207	0.439151863182
2	3933	4531.162138967534	0
2	3953	4570.37229205135	0
2	3958	4572.75853332199	0
2	3984	4596.377766386941	0
2	3992	4605.736610777047	2.938005711399
2	4003	4622.007794282379	0
2	4007	4624.626193831071	1.230064854175
2	4013	4628.477303755067	0
2	4029	4633.614941857879	0
2	4061	4679.997480113838	0
2	4078	4707.049831227456	0
2	4083	4713.599179031506	0
2	4101	4737.769973679091	0
2	4105	4738.670543252119	0.891282951899
2	4119	4744.398527844223	0
2	4128	4757.896390616424	0
2	4133	4764.889436289742	0
2	4193	4850.824570711247	0
2	4198	4869.551313547111	0
2	4231	4905.539816066841	0
2	4253	4933.995256240495	0
2	4266	4946.415848847397	0
2	4296	4980.277065523763	0
2	4314	5024.206581294175	0
2	4328	5030.143846947707	0
2	4343	5051.617623544884	0
2	4357	5059.224398842332	3.305540199102
2	4363	5061.155084988901	0
2	4373	5066.963523428507	4.957704112282
2	4375	5068.637575356433	5.35956617051
2	4377	5072.381499407803	9.048121435157
2	4403	5097.946072764235	0
2	4411	5100.6065796468	0
2	4428	5121.989136643709	0
2	4441	5149.423065461773	0
2	4464	5181.655380992553	0
2	4476	5186.584491523188	0
2	4481	5187.177973338208	0
2	4501	5217.860477372499	0
2	4509	5219.148161802295	0
2	4548	5272.110771104723	0
2	4568	5307.755952697246	0
2	4593	5326.049229821142	0
2	4601	5335.641731756342	0
2	4619	5349.674239899433	0
2	4642	5367.366338447952	0
2	4653	5393.226678362424	0
2	4658	5403.629438310242	0
2	4693	5461.704666889646	0
2	4710	5483.311678311101	2.700680447031
2	4728	5531.739555784088	0
2	4741	5539.575261357533	0
2	4753	5548.276809068257	2.861195040852
2	4760	5564.984423323029	19.167062128362
2	4775	5583.867874489571	25.166562074586
2	4777	5586.743569190102	2.899198069222
2	4783	5592.52675663841	0
2	4793	5601.004614805654	2.789546317475
2	4803	5618.338764096703	20.01785813374
2	4807	5623.062380898051	14.804660320537
2	4815	5630.622201862852	5.593921943342
2	4817	5632.360860642601	4.287983117936
2	4823	5641.079924182141	0
2	4828	5641.882342135067	0
2	4836	5647.036174628723	0
2	4841	5654.385793831171	0
2	4856	5666.124382601237	0
2	4867	5680.32458300394	2.936653379921
2	4879	5686.183062950711	0
2	4898	5706.758375124644	0
2	4913	5728.679837038216	0
2	4954	5797.330821473283	0
2	4962	5800.166255058649	1.574053161979
2	4991	5820.177500441184	0
3	8	2.427690140427	1.963017700689
3	10	3.855946221323	1.881439519782
3	15	5.815831816636	0.463673351015
3	26	11.476104033821	1.597256474879
3	28	13.528949244193	3.21234747715
3	33	18.731154417157	8.320664514486
3	35	19.079711039859	2.013042282525
3	40	25.57525833443	5.701275129965
3	45	27.667907672297	1.226485845568
3	53	54.065648331444	13.554492199392
3	58	61.165226489458	18.168423599796
3	63	65.015009635778	0.977156602937
3	68	76.486669868649	17.820821768728
3	73	82.893237769959	3.044049287773
3	75	87.449686938246	12.255350889991
3	80	98.352457843811	2.260408125644
3	85	103.653081101464	3.222607941903
3	93	109.90335039654	2.380380374907
3	95	110.270648658795	3.367542844805
3	100	113.127506410957	1.653979536407
3	105	136.638638865523	7.480083326576
3	110	144.154784770242	4.343981461171
3	115	158.802074914311	0.445602460461
3	120	161.482673945995	2.224769035248
3	128	165.151829937698	2.363849645639
3	130	167.864440642222	2.902478057572
3	138	188.275462629937	1.016899457016
3	143	201.715886215176	21.895150408237
3	148	205.298450612461	4.171916700236
3	153	210.439930138888	6.851579935035
3	155	213.094720708165	6.252035953984
3	163	213.600785019416	0.494647351558
3	171	220.892160344857	7.777663760478
3	173	223.322144460808	6.81860117209
3	175	226.722691255267	5.869252907389
3	180	243.656986545553	4.588507774577
3	188	267.460650277035	10.368131628728
3	190	276.689866940365	14.825639221008
3	195	284.751055944149	3.266684067055
3	200	285.680003423494	0.718156752667
3	205	294.483856248295	3.177144911112
3	213	297.098953081297	0.752176917235
3	218	302.24491576057	2.004105357817
3	220	303.954628095399	8.196071902942
3	234	314.830203686369	7.874116809335
3	239	321.371580458042	3.776090971825
3	241	321.73581494771	7.620094346301
3	243	325.181725489592	15.262736008225
3	245	325.777245036672	14.799125223072
3	256	334.608303989163	7.695867164643
3	267	340.910482539708	1.654321180831
3	269	342.844786090209	12.318358781776
3	271	345.229885266776	10.670086898067
3	273	346.586011052689	10.740562430452
3	275	349.886122008065	12.212977706989
3	283	357.915526800122	6.45477150222
3	288	363.747023823837	0.366728289419
3	290	365.81149404468	13.219060746092
3	295	372.947910694659	3.273775836376
3	300	376.5372638985	2.851892996895
3	305	390.151138791857	6.656011903257
3	319	404.005495753308	3.68080920507
3	321	405.228950203808	4.655691810236
3	323	409.21305766092	8.597832455925
3	325	417.788824416606	13.982173523722
3	333	426.767173788306	1.051605024517
3	335	429.245173304447	9.008414660223
3	343	432.226784350475	1.33843282758
3	351	440.402225700375	8.711083424986
3	353	440.501066006186	2.234568411564
3	355	441.152115753923	4.370801945359
3	363	451.37699315468	9.937622392899
3	365	452.650429673095	2.287710113324
3	373	462.151949657022	3.416326171
3	375	462.42960896022	8.146922573561
3	380	464.010578018684	0.946612742555
3	388	470.451254586597	1.124529118719
3	393	486.222183596156	21.281651197112
3	398	495.672966379066	12.303063366299
3	403	498.721368734852	9.538118777671
3	405	499.64219634163	3.023037068293
3	413	510.197475023799	8.428450791468
3	415	512.347082596968	4.176521360247
3	420	525.287307147037	0.184855831603
3	425	528.655119447664	2.499040151201
3	430	530.028645940614	0.234033970434
3	435	541.74474828914	2.29345132279
3	440	554.717923096975	5.172976389037
3	445	561.296523311498	0.119898442162
3	450	564.152768933862	2.028295073864
3	455	569.240198529262	2.846080530408
3	460	575.434855554746	2.056802166103
3	468	580.091680947204	1.816884002824
3	473	598.975726810711	4.096901673517
3	475	603.386179778651	25.041949426987
3	483	618.24907485372	1.421924413436
3	491	625.838868983147	9.073983291522
3	493	626.802369680013	7.542190274208
3	495	629.008401679038	6.156188342547
3	503	641.993971064301	10.529854574081
3	505	643.613321758953	6.642807928818
3	510	651.898666266958	0.656902242942
3	515	655.450877203861	1.229479703593
3	520	658.103335357885	0.378202608441
3	525	665.290980156944	1.030128129163
3	530	673.167053670368	1.022842931937
3	535	676.444527752204	1.130634263572
3	540	681.64183952679	1.948569055895
3	551	689.441592199003	1.092632439011
3	553	690.144577633326	5.96889847435
3	555	691.800431872387	2.429396592408
3	563	717.492994129817	19.51546331725
3	565	726.490707531957	9.872684023406
3	573	736.446511903066	1.353331118546
3	578	739.288828198056	7.978889073687
3	580	739.445746043338	1.652584634933
3	585	756.844936541499	8.781339461449
3	590	767.052253366593	2.463501648979
3	598	783.518626438037	3.950605037938
3	600	787.182332444069	7.603443875227
3	611	798.824049231397	3.052202472104
3	613	802.681279078979	14.941099127788
3	618	806.18661870724	2.500411716033
3	620	808.383364350567	12.647788277771
3	631	823.724022510889	1.623565952184
3	636	828.325624709415	6.006478358164
3	644	834.39361702729	18.547711460594
3	652	842.208013955536	0.487736357959
3	660	847.549086232604	4.632020737243
3	662	847.624282994278	3.051207997088
3	664	848.433131125078	22.878278701598
3	672	855.675477387507	1.549147540285
3	674	859.979795591717	28.92406735385
3	679	865.881222346053	33.462628897506
3	684	870.955642737384	31.058371117328
3	686	874.482030101334	23.246078728323
3	688	874.640514925797	14.166967340631
3	693	879.487567432414	4.2542205476
3	695	882.505193317762	13.863678037138
3	700	887.324691177672	3.350665011314
3	711	897.933169017868	3.679154440075
3	716	898.867994540097	2.387286685232
3	718	900.553998387833	4.3002144889
3	729	907.317597719451	5.121582436016
3	734	909.621160145329	11.3889306747
3	739	914.150972794909	3.126039769975
3	744	916.016019233635	7.167490417678
3	749	919.648952393983	2.030533378322
3	751	920.910480746762	19.476750919488
3	759	926.682644763787	4.215466063458
3	761	927.66942620638	24.904236287553
3	766	932.136461640257	16.532142229488
3	768	936.796542563541	14.539583760426
3	770	943.214218450263	12.548697609039
3	781	960.536961556864	6.740557935214
3	783	965.347654561346	21.53587468687
3	785	966.297829220471	20.079868009507
3	790	976.706092064971	2.292238229377
3	795	981.356574593376	4.22982989951
3	803	987.771528016445	2.888406065052
3	808	992.084928724901	0.313643383361
3	810	993.794729996192	11.232405068118
3	830	1011.707709492463	11.981352685754
3	832	1011.762514205889	17.655131704726
3	834	1012.502796268578	5.894984680219
3	836	1015.230701497901	5.83078283806
3	838	1020.964415299247	15.377501613663
3	843	1026.622444953229	1.783139600472
3	845	1037.594093202187	29.519494673687
3	856	1051.944650697714	3.790210603964
3	858	1054.160125168132	13.658990003036
3	869	1057.112479914128	0.898251052935
3	874	1063.178245745195	6.017966480799
3	876	1065.072447446286	24.312978341385
3	878	1065.318515347937	10.329339050557
3	880	1066.438410986977	10.880507710271
3	885	1089.706019923978	5.184699132602
3	890	1102.52243410544	0.645278332383
3	895	1108.569658648462	2.536212016176
3	915	1139.647251677293	14.220097160932
3	917	1139.983857534635	6.126947292267
3	922	1148.835599521636	13.402010021265
3	924	1150.089660584085	2.913481179754
3	929	1151.434028451413	15.894936736234
3	931	1157.592606383434	22.125895344623
3	933	1158.524323086681	7.095710686703
3	947	1167.981255733989	32.042665994307
3	949	1170.338949022395	3.593890241686
3	954	1171.172859811346	7.106314224519
3	956	1172.560707923602	1.920512404474
3	958	1174.724154277172	11.335151374685
3	960	1177.345184894132	12.676233259066
3	965	1183.508204704006	2.395181119673
3	973	1188.621298929943	1.113343114598
3	975	1190.641133064721	2.801220623306
3	983	1198.417018066787	3.863089241184
3	985	1200.35813456133	5.164232804034
3	996	1215.00739063103	3.796599015252
3	998	1215.280036275748	2.162535420644
3	1003	1222.382408908871	0.04516242419
3	1005	1224.089698039324	12.174801844238
3	1016	1233.146656804431	7.634519462702
3	1018	1233.74699581956	2.145593867915
3	1023	1236.837097047144	4.17507368458
3	1028	1242.311280113561	6.162899122694
3	1030	1245.713535157523	5.666470053147
3	1038	1257.342399745173	9.326174818055
3	1046	1264.410855439576	15.712915235807
3	1048	1266.81195866131	4.037837089553
3	1050	1270.659232159535	6.896272883745
3	1061	1286.686141249371	2.978028216301
3	1063	1287.537613285479	11.715413780371
3	1065	1288.122684067238	8.621029516063
3	1076	1292.086153698919	0.895971684193
3	1078	1293.894241114955	4.294003896384
3	1089	1304.999536992905	15.76998336994
3	1091	1306.18074303972	1.512092024821
3	1093	1306.68294757084	11.468601402667
3	1095	1307.686902398942	3.033634537608
3	1100	1325.081845408067	0.813846749587
3	1105	1328.447628215289	2.60562687924
3	1113	1332.144043196916	3.151594386155
3	1115	1332.299508636444	0.385684491514
3	1123	1342.732829791184	3.261135191139
3	1125	1343.171200239104	3.674512087128
3	1130	1346.486487096525	1.007890069377
3	1141	1366.236273002064	5.283692325342
3	1149	1395.602966740181	34.620618777219
3	1151	1401.386131604146	14.417356329579
3	1153	1404.974462257877	42.184175180724
3	1155	1405.499379979154	38.98269903498
3	1163	1412.27347206726	3.552061473309
3	1165	1429.591248867662	23.488727854185
3	1170	1441.161012766667	6.687082829451
3	1181	1449.719828768916	6.366701775732
3	1183	1450.550533384424	3.969789393918
3	1185	1458.014163794134	9.056142785537
3	1193	1467.233756012284	2.937355903607
3	1195	1467.351593228768	1.435920567225
3	1200	1473.67219742214	3.385670127349
3	1211	1483.463025273086	0.608208516333
3	1213	1501.686958460402	21.768541953654
3	1215	1502.073913321494	21.9821932851
3	1220	1516.076868686468	9.960297469325
3	1225	1519.16535977897	0.179118756903
3	1233	1527.398064024494	4.307459510291
3	1235	1532.907671734694	7.301036544104
3	1243	1568.381094298301	6.869694175691
3	1245	1568.47393246132	24.551930823574
3	1256	1577.811870284552	5.463429198872
3	1264	1581.910369235834	10.812595944775
3	1266	1583.123534297366	6.001394896582
3	1268	1587.427223031476	9.218882308412
3	1273	1596.618869984835	15.449618045385
3	1275	1597.92244995506	2.308615238569
3	1280	1611.565569819465	0.255080796027
3	1285	1632.571106970656	2.302362133958
3	1293	1639.337833848499	1.975740530594
3	1301	1645.062451938427	2.222517501818
3	1309	1653.317620457269	7.561826183685
3	1311	1654.073715831265	5.628411212934
3	1313	1655.092668364818	15.878524573822
3	1315	1657.096366346712	12.795426402437
3	1323	1660.937388295714	2.376803307919
3	1325	1664.470203671369	4.235807271816
3	1330	1672.027920684006	1.488395264861
3	1344	1682.622862336398	1.431376368255
3	1346	1684.103915159403	2.690514076677
3	1351	1686.846421225532	4.821028499897
3	1356	1690.23216002769	14.04870356887
3	1361	1692.964972201683	2.705124209083
3	1366	1699.039552324974	10.115430045309
3	1371	1700.00488933603	0.933617499266
3	1373	1704.056091540862	17.605867419483
3	1375	1707.873779203452	10.619258593555
3	1383	1723.326795056368	9.883912084425
3	1385	1723.490745975649	7.841966301987
3	1390	1741.117550885255	0.678678363203
3	1398	1743.983396028911	2.33592600765
3	1400	1748.820783799588	4.86977731571
3	1405	1750.037374139914	0.393897908594
3	1413	1755.053297631225	2.465348278158
3	1415	1759.430070875029	5.903348019259
3	1420	1763.33478328129	0.42251467784
3	1425	1776.623159387163	6.691125445197
3	1433	1786.980680390525	0.524299720121
3	1438	1792.07257285684	3.813263406925
3	1440	1792.614939370636	6.030821554695
3	1448	1808.619923390505	1.496100609851
3	1456	1810.818857960055	1.623664972117
3	1458	1812.932582535363	4.471265868738
3	1460	1815.935473372957	5.701931291773
3	1465	1825.062711924576	3.702353658765
3	1476	1839.265258933328	10.341689981037
3	1478	1843.358311140791	5.388772322039
3	1480	1844.183249339606	5.510366002421
3	1488	1871.462469318652	3.395010464589
3	1490	1877.93926326679	12.536021335289
3	1495	1888.022484460707	0.393693321653
3	1500	1888.12293937517	0.08195594102
3	1511	1905.788810169255	2.435913682279
3	1519	1915.323429187089	13.645064869328
3	1521	1916.100559238066	11.938654135573
3	1526	1918.049601559033	8.166169550895
3	1531	1924.102544810203	6.213451699848
3	1533	1928.588656956585	9.598429964969
3	1541	1931.83557992238	2.80398047694
3	1543	1934.031890360996	20.931020407603
3	1545	1936.439521113141	7.657699874191
3	1553	1939.412251761104	0.271476165126
3	1561	1941.811281636243	4.774251191924
3	1566	1943.841676339982	3.838878593896
3	1571	1948.667002299124	5.64774867877
3	1573	1951.55690158681	2.901294285859
3	1581	1957.340848093824	1.312661265109
3	1583	1960.246496368375	20.301010867598
3	1591	1964.919907718757	3.773118171765
3	1602	1973.815751195737	11.043906339422
3	1604	1976.700374659186	9.423822059836
3	1609	1984.455553978876	6.19510364824
3	1614	1991.60150966227	39.262447339091
3	1616	1993.313377496184	3.429133079172
3	1618	2002.997359702672	35.540973109753
3	1620	2006.055307464497	35.908939960623
3	1634	2031.603331368947	12.26333404529
3	1636	2031.682805836203	8.937096447533
3	1641	2033.221833005266	13.432968574047
3	1643	2039.689393104998	16.466582910816
3	1648	2040.283506402766	8.348507885669
3	1650	2043.27425322206	3.509692378331
3	1664	2058.422952027002	0.03268991722
3	1669	2060.954172129873	0.702727934591
3	1671	2062.3272623434	12.354460740953
3	1679	2066.625407048303	0.27768382073
3	1681	2066.782499613259	13.932681279032
3	1683	2067.340056024079	9.723791717201
3	1685	2072.858073381369	9.811976420349
3	1690	2078.172653013785	2.547727952876
3	1698	2089.574320144477	1.194039800487
3	1703	2093.085030911052	0.677503044399
3	1711	2100.837421051301	18.91739910766
3	1716	2103.230267091545	3.132253565106
3	1718	2103.495883919766	6.228825152555
3	1720	2104.092062698745	2.076551299928
3	1728	2108.155415990598	3.096292730204
3	1733	2116.385640428522	10.891053010277
3	1738	2119.796209587172	6.559126112065
3	1743	2127.707785172141	10.038051097498
3	1751	2133.22821185015	6.425624013031
3	1753	2134.232102054383	4.939541884437
3	1755	2141.388848930257	8.548648844606
3	1760	2147.515280734642	0.169897932274
3	1768	2158.117668220466	3.739930364659
3	1773	2159.455727685864	1.579156191038
3	1778	2165.230725627222	6.681468687777
3	1780	2165.883950527506	5.128243739178
3	1785	2166.372632893909	0.265571416122
3	1796	2172.705190609762	5.632242790266
3	1798	2173.515070022708	1.563039007425
3	1800	2176.645247302202	8.040327955754
3	1805	2188.700835237499	3.701867909511
3	1816	2193.607381211557	4.812525884744
3	1824	2199.546650993406	9.102089819379
3	1826	2199.723394717452	10.327673587579
3	1831	2205.601570848276	11.020885750635
3	1833	2206.778179702391	1.513974511167
3	1841	2209.459639909515	0.000945019831
3	1843	2209.525046311149	0.393135173105
3	1845	2209.660453085321	13.05694877986
3	1856	2226.993012494806	3.458700426433
3	1861	2234.635859453805	7.733474587488
3	1863	2236.313178122396	5.055934225549
3	1868	2242.511539136419	15.867965373604
3	1870	2244.015229460412	4.319224325041
3	1881	2251.350056550612	5.156876191187
3	1883	2252.86518395835	5.765909278479
3	1885	2252.975917864526	5.689504524129
3	1893	2266.214034940303	6.105247581434
3	1895	2266.446982744666	0.254560295545
3	1900	2268.817661000291	0.785479785701
3	1905	2285.595270538128	5.374319836987
3	1910	2303.610793131062	0.286790767667
3	1915	2306.787260757464	0.572666051246
3	1920	2310.222427556382	0.303742901822
3	1925	2311.749076485796	1.449393871615
3	1930	2313.725326101226	1.495197302752
3	1938	2330.635079413381	0.912088753058
3	1940	2330.771009965351	8.933499173379
3	1948	2337.230130221565	1.877282771116
3	1950	2337.233664255353	0.079115402579
3	1955	2349.196197390061	0.714813057098
3	1963	2358.619962961286	0.111452251727
3	1971	2365.561495960975	8.229156258608
3	1976	2369.180790885046	8.140364835688
3	1981	2373.625305520417	0.846123256087
3	1986	2375.191571037158	11.062382110238
3	1988	2375.842122649571	10.050701094065
3	1993	2378.143127406326	4.330526146139
3	1998	2378.848368679643	1.887513427592
3	2003	2388.974656810683	10.799959155918
3	2005	2391.038190258475	2.842193710166
3	2010	2414.533666667084	3.676675187834
3	2015	2415.53435355975	0.482546588357
3	2023	2422.031858808596	0.542255483652
3	2025	2425.102222896605	7.219637471584
3	2033	2432.784579231512	2.52790473735
3	2035	2437.87036836519	5.150814595196
3	2040	2449.457784537728	9.683888666379
3	2045	2474.573435477188	8.802974076058
3	2056	2486.99710323605	6.716000885471
3	2064	2492.403663412902	7.790206331399
3	2066	2492.603718851711	2.567176505229
3	2071	2496.577863924102	0.722818709153
3	2073	2502.210294913038	15.972433668715
3	2081	2515.267676421965	25.291214815596
3	2083	2515.396755595355	10.537602763334
3	2085	2517.51010552285	3.859749263422
3	2093	2531.226962196601	0.855889984199
3	2098	2543.645407795153	15.701919001796
3	2103	2544.177694979363	1.999538628183
3	2114	2549.509834463628	0.251630539
3	2122	2552.770975755524	8.79208122847
3	2124	2553.071652251855	4.714532081598
3	2126	2553.804023410439	5.658783372318
3	2128	2554.581670328089	2.495881277788
3	2133	2562.500212550983	3.925902275795
3	2135	2570.608616228897	17.85470166867
3	2143	2589.294130880267	1.889733817488
3	2151	2594.527619649561	9.169826697042
3	2153	2595.579344647149	2.386208740949
3	2158	2605.057928251785	14.139392435206
3	2160	2605.489178558708	0.566376695943
3	2174	2622.433910998043	9.783232307393
3	2176	2623.289800797964	10.236923609468
3	2178	2623.294166769053	3.958370084079
3	2183	2626.630060384131	5.916397099122
3	2197	2641.476124608086	3.731132949492
3	2202	2643.61575685933	6.568530876324
3	2207	2651.218632091152	9.853529052277
3	2209	2657.373756604956	6.722453791654
3	2217	2666.462349141393	2.016928085614
3	2219	2667.441369142569	42.046615571018
3	2221	2670.974871298963	42.483664500966
3	2229	2679.862770413548	0.971102923466
3	2231	2679.949325128145	36.756593165949
3	2233	2682.402663014691	22.448206471074
3	2238	2689.790843241064	12.635094740092
3	2246	2696.804413378974	0.232859183462
3	2248	2698.386518476471	12.801839399745
3	2250	2698.739516119718	2.597396242336
3	2258	2706.08123174465	4.326505513248
3	2260	2707.944719419026	3.284316077223
3	2271	2720.868307289617	9.577689101708
3	2273	2721.024560127188	8.728222359149
3	2278	2722.267858955548	4.948333312622
3	2286	2726.650938982482	4.395967183674
3	2288	2735.416845343588	10.552418974469
3	2290	2738.088223376699	12.557021501275
3	2295	2742.077782198793	1.953696912594
3	2300	2753.839342191622	1.518737729245
3	2311	2761.801275940944	6.686293413894
3	2322	2767.884511284592	10.730494643748
3	2324	2769.440989678911	2.886830000089
3	2332	2771.469294749937	10.924903924468
3	2334	2772.182834489113	2.288098935885
3	2339	2777.166751322391	15.048695636973
3	2344	2780.572682509494	0.552149414563
3	2346	2783.135078902157	6.452736601229
3	2348	2784.104759078753	21.695917743098
3	2365	2793.888374524702	22.913269292438
3	2367	2796.420249599048	10.91220986384
3	2369	2798.788050354871	9.119699491874
3	2371	2798.830204020383	7.236191812064
3	2379	2803.21175371026	10.993158619883
3	2384	2805.029051648966	11.527506831941
3	2386	2807.314191389462	4.923600379486
3	2388	2810.710025188927	8.045609582487
3	2393	2816.593252057159	3.106618475528
3	2395	2827.318859075626	22.410539723784
3	2406	2836.160486626783	1.623059591314
3	2408	2838.008619942124	3.076259547671
3	2410	2838.699974360555	9.201664416645
3	2415	2843.578410514858	1.013624970773
3	2420	2862.720130894535	6.000966979142
3	2425	2867.091259402448	1.907826918232
3	2436	2870.050910879926	2.360174580101
3	2447	2874.190518948337	6.820149206574
3	2449	2876.48196764498	6.627138324458
3	2454	2885.84995982636	15.332164566301
3	2459	2895.382122769425	21.86641926554
3	2461	2896.005817075262	25.682304645829
3	2463	2898.792685689548	15.806398939293
3	2468	2904.49641579372	11.535179352759
3	2470	2908.519271275455	7.075291311224
3	2481	2920.350055026931	10.491999722886
3	2486	2922.697547384316	1.77715852777
3	2491	2927.99407883649	1.716169042265
3	2493	2932.275533258389	19.500043320811
3	2495	2932.292803831927	16.418316107175
3	2500	2935.478567475013	2.453934280217
3	2505	2938.067036734608	1.300643470253
3	2513	2957.374997002286	9.932775032263
3	2515	2963.509804104411	6.74146267093
3	2520	2987.669185389669	6.731481550406
3	2528	3002.413055949632	5.155254877545
3	2536	3006.125801054588	4.873054887751
3	2544	3007.696847493376	2.952098055706
3	2549	3009.084227806269	4.065473295854
3	2554	3011.167806536748	3.963365549346
3	2559	3013.899354348701	7.347782827169
3	2561	3015.086764668322	7.120293484469
3	2563	3016.900827571638	3.39625097884
3	2565	3019.275767001415	9.368752886832
3	2570	3020.921426707765	1.539731492312
3	2575	3022.081973986542	1.018387038265
3	2583	3034.375701998512	5.294531190704
3	2585	3036.109046496478	1.925769805242
3	2590	3041.506147885828	1.275286221753
3	2595	3042.850390803382	0.781992445931
3	2603	3062.02524134698	15.025733060352
3	2605	3063.6574113119	13.133882100459
3	2610	3077.030214603292	5.037716615101
3	2618	3090.297011251318	1.870981232118
3	2626	3095.115736939477	1.901746429921
3	2631	3102.347412966599	18.194429313655
3	2636	3105.072508601925	3.086986574208
3	2641	3109.446327104394	14.826414199097
3	2646	3112.08390873168	3.621202768003
3	2648	3113.541535935889	9.021967974649
3	2650	3116.735538845466	6.572690631012
3	2655	3131.06432237469	3.216774550288
3	2660	3134.677118788441	1.514346925805
3	2665	3146.232525180555	4.244641246586
3	2676	3159.442559475784	5.704607180598
3	2678	3160.384331778411	2.347933011852
3	2680	3160.815160917333	5.329379611348
3	2685	3168.274174840801	5.062534931818
3	2693	3186.915176000992	7.598932867608
3	2695	3189.998511910234	9.811044909083
3	2706	3201.291612688456	7.81250634766
3	2708	3203.441019583008	2.373748598288
3	2710	3207.031409293151	11.300148597362
3	2721	3216.963125645786	8.036630820468
3	2723	3221.010411484407	9.78224254759
3	2728	3222.324814407623	0.96741425335
3	2736	3231.323129087837	5.246322909633
3	2738	3231.885135768194	21.152093449605
3	2743	3240.165065255766	12.118365759495
3	2751	3253.411172514181	2.588107559074
3	2756	3256.843368739439	24.089921967969
3	2761	3259.665898003486	7.440194350777
3	2766	3263.672417511731	8.004126602905
3	2777	3271.510244570265	10.762797572606
3	2782	3273.389982575652	14.134903400957
3	2784	3276.711506651672	12.47415263537
3	2786	3279.397601624616	10.969245568427
3	2794	3284.081935411842	1.401538614118
3	2796	3284.953588287636	3.300411971097
3	2798	3288.330949633137	17.806933328478
3	2800	3289.397584171619	17.028172916897
3	2805	3302.05488177614	1.154512267629
3	2813	3317.065258560776	7.571644762622
3	2815	3319.671781736189	6.932941460317
3	2826	3321.583254054877	1.794139359351
3	2831	3324.335227040174	4.439395874098
3	2833	3324.399028128231	3.38835222591
3	2838	3326.336029287927	2.759823232502
3	2846	3328.939187713554	1.850309687574
3	2851	3332.207505454953	6.916034732481
3	2856	3334.394226966322	6.226048922742
3	2861	3337.144519891865	6.187766058615
3	2863	3340.478874989573	4.434282721365
3	2868	3343.464257400532	10.131705470565
3	2870	3345.987113684029	5.221409479613
3	2875	3352.944612489229	2.723936267711
3	2880	3357.020845975389	0.476836446268
3	2891	3373.51921587476	2.390481981525
3	2893	3377.288669815966	11.396544524533
3	2898	3385.178678528904	20.506545272825
3	2909	3390.721107193772	1.647703440335
3	2911	3392.132637061733	6.903168622715
3	2913	3392.526128288332	14.613952889583
3	2915	3393.768301300201	6.495148325843
3	2920	3395.169777048342	0.15348273481
3	2925	3410.236337711967	6.545110941612
3	2933	3419.258917513169	0.339581864375
3	2938	3421.512901918873	1.117332511686
3	2940	3421.827434356104	6.621915299739
3	2945	3437.323018439185	3.456009395583
3	2950	3446.419526232398	4.687658282963
3	2958	3452.815160481637	2.164225899081
3	2966	3478.059791011356	2.020361637617
3	2971	3479.151404338291	0.023297365698
3	2973	3483.198599080548	30.60223108864
3	2975	3483.624854514455	29.273070063508
3	2980	3485.561254847069	1.678146154001
3	2985	3491.448608622655	1.954169180917
3	2990	3498.763532115463	6.936450600957
3	3001	3518.05353934119	5.838115305988
3	3003	3519.819463481693	6.461584025924
3	3005	3526.151550760188	10.60408746052
3	3010	3528.354472193489	0.084752099538
3	3015	3534.753783781761	0.650701980215
3	3023	3542.163655134123	1.706924515716
3	3025	3544.859126799359	8.7745766519
3	3036	3553.519508252034	1.579530430526
3	3053	3566.465404562184	7.630883575972
3	3055	3569.136865899336	18.696879325555
3	3060	3575.909770252126	0.638245270985
3	3068	3577.61020203004	26.418552386806
3	3070	3577.633683040226	17.340956091729
3	3075	3581.881461000282	20.54043385443
3	3080	3585.385048414629	4.627705636656
3	3085	3589.69892623965	1.638161961632
3	3087	3590.655600878901	25.107080193538
3	3089	3591.452439188698	25.116816346885
3	3097	3596.160017817157	19.971022610544
3	3099	3596.864420538073	20.342447358453
3	3107	3604.403785569083	21.348814354559
3	3109	3606.268522675327	12.791448894644
3	3111	3606.756769129428	2.543785106211
3	3113	3607.707587179277	12.01742054996
3	3118	3614.250115147269	1.441340871744
3	3120	3615.289086408384	12.588020514363
3	3125	3626.745313592315	7.215360346388
3	3133	3629.920498857714	1.867190326116
3	3135	3630.756235314666	2.461984646052
3	3143	3648.470103190942	5.633869411743
3	3148	3650.218282713362	0.813204432533
3	3150	3650.744189870904	4.037247078362
3	3161	3656.274740999872	3.826720668917
3	3163	3659.148980364925	5.042401046995
3	3171	3662.600022209439	2.333465411255
3	3173	3666.6209253469	4.244174156803
3	3175	3668.885869135048	12.673506693789
3	3180	3678.743383654338	0.12087557017
3	3185	3684.048482983496	5.013329971802
3	3190	3687.562914344045	0.423310377512
3	3195	3695.894594768141	6.042040343009
3	3203	3711.117994484407	1.274646167543
3	3208	3715.945004000934	6.627069518707
3	3210	3717.566011744657	3.601458407386
3	3218	3736.918705921759	0.628520215283
3	3223	3742.154647258382	7.227309945095
3	3225	3746.764297641696	7.585488365987
3	3239	3765.828915780326	5.529492524313
3	3241	3767.432709031595	12.265975531838
3	3243	3768.647547922911	3.366871298934
3	3245	3773.514254746034	16.548473090217
3	3256	3793.59986066048	14.074688369201
3	3270	3798.831823707758	4.490377465589
3	3275	3802.120611906548	4.766520829987
3	3280	3811.632791693096	28.649160230138
3	3282	3812.023785043207	11.311024436661
3	3284	3815.932166036823	29.788199208257
3	3286	3816.683015519105	21.509221520904
3	3291	3821.040242423229	22.684775426237
3	3296	3822.600931276688	15.885035951258
3	3298	3827.29243995684	4.909156142428
3	3303	3841.412756780658	11.915152559551
3	3305	3843.067906660701	26.034547344835
3	3310	3859.570132399334	2.172832871008
3	3330	3862.851526544531	0.836680896408
3	3335	3864.286261036621	1.468708803333
3	3343	3865.342095351407	3.098375660621
3	3345	3865.747075679728	3.406905776963
3	3347	3866.510362670464	3.876540769653
3	3349	3866.899893356126	2.372305502197
3	3351	3873.333716129751	9.988433929991
3	3356	3876.274185242007	0.634825784484
3	3361	3878.857268528926	0.200321926768
3	3363	3879.642744757766	16.863649567372
3	3374	3887.573656585029	22.234467531598
3	3376	3892.406926072934	5.367044530393
3	3378	3892.41250927848	5.336605116927
3	3383	3893.703383715127	7.705549351536
3	3385	3898.154133721461	4.642096554443
3	3390	3911.199152098331	4.803327498186
3	3395	3927.339327864204	0.34275138347
3	3403	3934.330758946706	5.698023056673
3	3405	3936.065765579605	2.449020759599
3	3410	3939.646092439327	1.219283120878
3	3418	3946.20664416551	1.282701907348
3	3426	3949.507662157981	2.090944726471
3	3428	3950.178086082846	7.245588115624
3	3433	3952.3492789458	5.245803826406
3	3435	3954.364564950493	4.148975156594
3	3443	3960.272962147104	3.066799333425
3	3445	3968.637799792158	9.497855683492
3	3450	3990.822424651258	9.83062073865
3	3455	3995.873782701462	1.414949086301
3	3463	4003.383563774376	7.253156150144
3	3465	4003.93095677787	7.366123237225
3	3470	4007.755444254006	1.996277140598
3	3475	4009.077497764431	1.293366522836
3	3483	4017.9082709744	5.417271228592
3	3485	4022.943619453669	6.460312466314
3	3490	4023.900527446231	0.881351334103
3	3495	4041.345826108104	2.724659143349
3	3500	4058.963290696892	6.004079093139
3	3508	4073.797292382437	3.892959424609
3	3510	4073.909991298435	3.866731089181
3	3515	4082.717945173929	2.769824423427
3	3520	4092.019770664703	4.279343727862
3	3528	4095.982017781571	1.389789467488
3	3530	4097.164151297743	3.032737820779
3	3538	4109.758075705407	0.576308290571
3	3549	4120.765742539874	0.387076247716
3	3551	4124.70660914314	20.466488836263
3	3553	4127.370343838167	13.968461515778
3	3555	4127.434328011214	7.996204529932
3	3563	4142.563761161368	6.484118861067
3	3565	4144.768651350454	11.918703229956
3	3582	4172.799144768952	12.202254682026
3	3584	4175.635393221656	9.764693331447
3	3589	4181.351147075637	11.865819026903
3	3597	4184.941759198299	0.219370834185
3	3599	4185.270830856523	1.908825395927
3	3607	4190.866864733431	1.776639691553
3	3609	4191.296387372354	2.10084505686
3	3614	4200.638943402245	32.957824018729
3	3616	4202.085058914774	5.793302240826
3	3621	4204.47313446817	34.583639933898
3	3623	4205.704576049577	2.443631730038
3	3628	4213.962216197815	33.36034491746
3	3630	4217.331313499764	5.528171740905
3	3635	4231.406620359541	1.085822900916
3	3640	4233.46851205118	0.86959127644
3	3648	4265.314678517988	0.392603616111
3	3650	4267.633916106813	6.113916796866
3	3655	4268.272097681525	0.183471622205
3	3660	4272.779620561138	2.462100467727
3	3668	4280.896870268472	6.68246303695
3	3670	4282.063507695057	2.601250694032
3	3675	4292.339924879805	7.598195618977
3	3680	4298.12943884564	3.325684207576
3	3685	4305.266345089899	4.127365100117
3	3693	4312.030649740644	2.633833984615
3	3698	4320.057124593169	8.155386062203
3	3700	4320.44171171362	7.0405629651
3	3708	4324.481368456114	1.924806088218
3	3713	4329.855829455674	0.858714995361
3	3715	4330.549984516374	7.180758701567
3	3720	4337.820952916483	0.102831252847
3	3725	4350.339669093309	3.750435156946
3	3730	4359.551626053441	1.4726712955
3	3735	4371.240114105902	0.126461187914
3	3740	4374.687561293452	2.124286630482
3	3748	4386.649252016254	1.595340175193
3	3753	4388.963931365548	0.111771879803
3	3761	4393.018271134149	1.66869575067
3	3763	4394.917076096982	4.830081277198
3	3765	4396.298971306534	10.875831453789
3	3776	4400.342521637074	3.044098756646
3	3787	4402.450488854573	4.762163163292
3	3789	4406.00323039663	3.815113842576
3	3794	4408.664334554832	12.1288092577
3	3799	4410.647321739281	10.225254855217
3	3801	4411.776323541416	4.243046108298
3	3806	4414.672784760332	4.893727805547
3	3817	4418.602066301981	1.221823718277
3	3819	4419.21100557839	6.280825518445
3	3824	4420.019637474547	3.025087627869
3	3832	4422.115442998181	1.541397323017
3	3837	4424.317182713987	2.24870303262
3	3839	4425.303090638091	24.037467548181
3	3844	4432.676740136086	4.874607387582
3	3846	4435.369218720889	17.542181831
3	3848	4435.639693784474	16.400716996004
3	3853	4440.562906058128	0.589557334875
3	3855	4442.833888944976	19.421596209092
3	3863	4453.590358402646	2.655332436108
3	3865	4454.777137447351	3.311675789588
3	3870	4458.017139216939	1.120464272613
3	3878	4469.095452240855	0.234917916586
3	3880	4469.177602438748	8.197132894478
3	3885	4490.998825903021	3.897114813981
3	3890	4498.26323270909	0.620697491931
3	3898	4504.490365480341	0.085439772136
3	3909	4514.761227832113	1.404401131051
3	3914	4519.219346197731	10.437142114042
3	3919	4520.688087761299	17.065593175263
3	3921	4520.747866469207	13.021422765638
3	3923	4523.519781539218	6.195387369634
3	3928	4527.312815172459	7.004100566434
3	3930	4529.20520611185	2.366178564588
3	3935	4533.17089916107	2.008760193536
3	3940	4546.044824792774	2.760697277866
3	3948	4560.758511641852	3.627597259742
3	3950	4565.008168469362	4.782342658419
3	3955	4571.602298163432	1.230006112082
3	3966	4577.569298080501	4.447937172429
3	3968	4578.631806088176	5.873272766186
3	3976	4591.189707568443	17.93173461069
3	3981	4595.661792597742	4.784388792425
3	3986	4600.716635374259	5.430220236289
3	3988	4600.92833243693	21.052276818358
3	3993	4605.736610777047	9.358844390106
3	3995	4605.879729292577	3.081124226929
3	4000	4619.921992138062	8.71088439998
3	4008	4624.626193831071	2.618399548692
3	4010	4627.553104077243	4.156975100347
3	4021	4630.956883390962	2.439620389163
3	4026	4632.625561784532	4.148258029465
3	4031	4635.16648431076	1.551542452881
3	4039	4640.480362281125	7.91501622503
3	4041	4648.413463018865	18.086459087992
3	4049	4651.323183762899	0.899299831379
3	4051	4658.753374950403	22.689831731515
3	4053	4660.418222162739	22.953469790101
3	4055	4675.716580739754	26.51227891134
3	4066	4680.580510926908	0.58303081307
3	4068	4681.394298899026	1.353191400871
3	4070	4685.90357628399	9.313458706105
3	4075	4695.602066295471	8.371164987103
3	4080	4707.202842809856	0.1530115824
3	4088	4719.072995327636	0.522807602464
3	4093	4724.919052475631	3.375183950453
3	4095	4725.849139668658	12.249960637152
3	4106	4738.670543252119	0.900569573028
3	4111	4739.365553418358	1.586293118138
3	4116	4741.813516115465	6.05953553014
3	4121	4745.726235756932	6.431882622599
3	4123	4747.32593637472	2.927408530497
3	4125	4754.719752714087	13.869486614324
3	4130	4764.724787629133	6.828397012709
3	4135	4768.66945018092	3.780013891178
3	4140	4773.594126913714	0.421576615592
3	4151	4788.605156451734	11.837158382042
3	4156	4798.764956800051	17.829001684487
3	4158	4799.138135754696	15.281723992609
3	4160	4800.616152229262	1.995919307383
3	4168	4804.302201061897	2.763350981051
3	4170	4815.960433765021	11.718961817349
3	4178	4833.657855296676	3.153436589542
3	4180	4833.830793439837	1.307517102024
3	4188	4841.030625143366	2.855699764067
3	4190	4844.023845735043	6.278999898175
3	4195	4851.533064647296	0.708493936049
3	4200	4877.926550621917	8.375237074806
3	4211	4887.604151825036	4.937059030618
3	4213	4892.419108382748	6.397069575018
3	4215	4893.161007709727	6.74136677231
3	4220	4894.210862899979	0.472169259489
3	4228	4901.119164201616	1.645454167863
3	4233	4906.215048502241	6.164635428099
3	4235	4908.516656130337	2.976840063496
3	4246	4922.840757749377	6.633706351907
3	4248	4926.93805040374	5.700468438536
3	4250	4930.78231595728	9.991781824181
3	4258	4937.193061200439	3.197804959944
3	4263	4946.380235561833	10.997634145144
3	4271	4952.17838452993	5.762535682533
3	4273	4953.131590016237	11.175927268631
3	4278	4957.593619872431	10.969372975451
3	4283	4963.220501508435	9.874601495993
3	4288	4974.341424817827	11.204216039159
3	4290	4975.326108209689	7.538521247933
3	4298	4981.326491845005	1.049426321242
3	4300	4983.383935033603	3.93730557898
3	4308	5020.32934595849	0.046019070508
3	4316	5024.945347360783	13.378678010235
3	4318	5025.876675490802	2.026486452279
3	4323	5028.787391158905	2.672659332312
3	4325	5029.653698287531	5.447116993356
3	4333	5035.268273166918	5.124426219211
3	4335	5036.331133913667	3.616883928178
3	4340	5050.185315079539	0.800743104102
3	4351	5057.701723672046	3.749906815125
3	4356	5059.209652301804	0.490022387411
3	4358	5059.224398842332	7.606775297448
3	4360	5059.685278337892	3.766419694662
3	4374	5066.963523428507	5.808438439606
3	4376	5068.637575356433	6.631756040208
3	4378	5072.381499407803	9.10349022188
3	4386	5086.789497088573	5.718567278579
3	4391	5088.651654975024	11.273425449708
3	4393	5089.952330947154	2.375897094565
3	4398	5096.069033893669	32.735655921023
3	4400	5096.473154884772	2.414622451495
3	4405	5098.46902912551	0.522956361275
3	4413	5107.115740929731	6.509161282931
3	4415	5109.396028985909	9.177951907511
3	4420	5112.966267289516	0.880844986724
3	4425	5115.115562320077	0.00331124873
3	4436	5131.343605903381	9.354469259672
3	4438	5137.881119291546	8.785574669366
3	4446	5153.375256952465	22.896345516191
3	4448	5155.6964514345	6.273385972727
3	4450	5156.124623998199	5.044887700984
3	4461	5181.40960770419	6.032767177323
3	4466	5184.171119616497	16.771563668359
3	4468	5184.335816911432	2.680435918879
3	4473	5186.543462594244	5.721551813707
3	4478	5186.62091739761	0.036425874422
3	4486	5189.313183973308	2.1352106351
3	4488	5190.676162279064	4.137271465489
3	4493	5191.296399560449	0.478925576315
3	4495	5191.648081039794	4.054633473375
3	4506	5218.549545034043	0.689067661544
3	4511	5219.447343492925	10.42967726606
3	4513	5224.208978512249	5.755837213606
3	4518	5227.701583197055	1.538437755315
3	4523	5246.74033410158	3.524254608914
3	4528	5253.063522066011	3.665538726187
3	4533	5254.094447221676	34.946285419381
3	4535	5261.491298166804	8.37025777622
3	4543	5266.667669615886	0.774700172779
3	4545	5268.837677900794	4.887147136951
3	4550	5276.041882219693	3.93111111497
3	4558	5290.652022246418	13.298747314214
3	4560	5294.548605678374	15.278995663293
3	4565	5304.407854822999	3.419645599574
3	4570	5311.80725598475	4.051303287504
3	4581	5317.301137369664	3.971946845545
3	4583	5317.591193398867	3.928299870132
3	4588	5320.891019479842	0.952245282258
3	4590	5322.805762260721	7.489886196249
3	4595	5333.937706914265	7.888477093123
3	4603	5335.649237004731	0.174751394918
3	4605	5339.956873978922	4.31514222258
3	4610	5341.760863400948	0.539393281213
3	4624	5355.062510922656	5.388271023223
3	4632	5358.605266312452	13.859253873775
3	4637	5361.174049719315	3.695915278049
3	4639	5366.711567305106	19.598440315159
3	4644	5371.165569731329	3.799231283377
3	4646	5381.007479507938	27.139291655502
3	4648	5385.326268045944	27.023683168177
3	4650	5387.866067071699	28.173672212138
3	4655	5398.455291618564	5.22861325614
3	4660	5403.990175076238	0.360736765996
3	4671	5428.848698302764	3.943461089563
3	4673	5432.560110633021	6.582587620012
3	4684	5448.40137244516	22.134283682086
3	4686	5451.399622923299	3.663448898485
3	4688	5452.006718552302	15.126953251529
3	4690	5452.644778521445	13.535130402762
3	4698	5463.481431061972	1.133839180374
3	4703	5472.777258026896	3.408376901888
3	4711	5483.311678311101	21.607011421455
3	4713	5490.749538033866	10.138540169796
3	4715	5490.954622005478	8.177191420581
3	4720	5501.195686180678	2.201808668831
3	4725	5531.410117807883	1.844468545203
3	4736	5535.185768476535	1.059933307894
3	4738	5538.062157348958	6.32260156487
3	4743	5540.19111868219	5.992528903586
3	4754	5548.276809068257	8.701547710724
3	4756	5548.850309138502	1.352198977447
3	4761	5564.984423323029	19.568809295624
3	4766	5573.632003002602	1.623123885887
3	4771	5578.896078201434	2.589073090963
3	4776	5583.867874489571	38.050513294904
3	4778	5586.743569190102	28.042256775117
3	4780	5588.029743024215	4.185371903335
3	4794	5601.004614805654	8.477858167244
3	4796	5601.265669706031	2.007973029563
3	4804	5618.338764096703	20.123695608524
3	4806	5619.207705018365	5.380638797019
3	4808	5623.062380898051	24.741474935088
3	4816	5630.622201862852	22.364481285338
3	4818	5632.360860642601	7.332580723091
3	4820	5632.820605209569	4.747727684904
3	4825	5641.157475466266	0.077551284125
3	4830	5645.268577562842	3.386235427775
3	4838	5653.923369847811	6.887195219088
3	4843	5656.879933118513	2.494139287342
3	4845	5658.800509696651	12.34549555623
3	4850	5664.480620441737	5.002176864972
3	4861	5666.84676958895	1.732811575172
3	4863	5676.097622665803	9.290913741565
3	4868	5680.32458300394	14.200200402703
3	4876	5682.018024896969	4.63009527295
3	4881	5687.32465323952	1.141590288809
3	4883	5689.524221351916	8.597301687547
3	4885	5689.649258304059	8.473446682402
3	4890	5696.542860049556	5.448649100522
3	4895	5704.829662682445	0.806966460743
3	4903	5714.293222778174	3.615451117187
3	4908	5717.570459092835	10.812083968191
3	4910	5719.535032258609	4.623436768024
3	4915	5735.010551637444	6.330714599228
3	4920	5741.994130756271	5.801767134391
3	4928	5758.629655733038	15.881571380944
3	4930	5761.315253771481	3.570584653127
3	4938	5769.781105728091	1.566017323318
3	4940	5770.775135798302	4.603273439432
3	4945	5788.749092851197	0.254888499027
3	4956	5797.446615553807	2.116401115847
3	4958	5798.364567806002	2.124501721037
3	4963	5800.166255058649	2.835433585366
3	4965	5802.653161010343	4.060959113673
3	4973	5808.272343186432	2.009158030706
3	4984	5818.899624353889	14.814434443195
3	4986	5819.776294807871	6.271051277026
3	4988	5819.797296744218	9.293574955083
3	4993	5821.153905794239	0.976405353055
3	4995	5830.720262857351	14.059913166348
3	5000	5847.200697758426	1.648165020403
