version 2
run General-0-20170426-15:28:23-32888
attr configname General
attr datetime 20170426-15:28:23
attr experiment General
attr inifile omnetpp.ini
attr iterationvars ""
attr iterationvars2 $repetition=0
attr measurement ""
attr network Toll_road
attr processid 32888
attr repetition 0
attr replication #0
attr resultdir results
attr runnumber 0
attr seedset 0
param **.numBooths 3
param **.queue[*].serviceTime exponential(5.11s)
param **.source.interArrivalTime exponential(5.854s)
param **.source.numJobs 1000

vector 0  Toll_road.queue[0]  queueLength:vector  ETV
attr interpolationmode  sample-hold
attr title  "queue length, vector"
vector 2  Toll_road.queue[1]  queueLength:vector  ETV
attr interpolationmode  sample-hold
attr title  "queue length, vector"
vector 4  Toll_road.queue[2]  queueLength:vector  ETV
attr interpolationmode  sample-hold
attr title  "queue length, vector"
vector 3  Toll_road.queue[1]  jobsProcessed:vector  ETV
attr interpolationmode  none
attr source  queueingTime
attr title  "jobs processed, vector"
vector 6  Toll_road.sink  lifeTime:vector  ETV
attr interpolationmode  none
attr title  "lifetime of arrived jobs, vector"
attr unit  s
vector 5  Toll_road.queue[2]  jobsProcessed:vector  ETV
attr interpolationmode  none
attr source  queueingTime
attr title  "jobs processed, vector"
vector 1  Toll_road.queue[0]  jobsProcessed:vector  ETV
attr interpolationmode  none
attr source  queueingTime
attr title  "jobs processed, vector"
0	0	0	0
0	42	56.427451882605	1
0	43	56.461930655207	0
0	61	92.927707934702	1
0	65	100.632792020025	0
0	71	106.132641577981	1
0	72	106.437440012164	0
0	111	135.619558943651	1
0	112	136.644144395249	0
0	151	192.592559469454	1
0	154	192.821937667096	2
0	155	194.260980033825	1
0	159	198.710306531341	2
0	162	199.340402454487	3
0	165	200.370200349409	4
0	174	210.576937374719	3
0	181	212.684818659623	2
0	188	213.601832221824	3
0	189	214.634569019265	2
0	198	220.185405555553	1
0	205	229.484680233096	0
0	214	243.833924950013	1
0	217	248.642230991573	0
0	326	408.28637135863	1
0	327	411.59391303927	0
0	537	695.21404779646	1
0	538	697.045519999585	0
0	547	700.889474584406	1
0	550	701.685216179214	0
0	679	872.409257980587	1
0	682	873.611363818766	2
0	683	876.458909840761	1
0	685	879.834080578279	0
0	711	914.747495679436	1
0	715	924.401883719954	0
0	774	975.068114704082	1
0	777	978.663512964916	0
0	946	1296.018432859236	1
0	947	1302.02793858984	0
0	971	1325.646935573417	1
0	978	1328.494968245078	0
0	984	1331.647240533719	1
0	987	1334.370146736479	0
0	1154	1545.700317883825	1
0	1155	1549.465336976363	0
0	1201	1626.356848854112	1
0	1204	1629.359523464279	2
0	1205	1635.799005592288	1
0	1207	1636.335211931136	0
0	1411	1913.399131685748	1
0	1412	1921.00189272607	0
0	1444	1977.687395150959	1
0	1447	1981.206554450891	2
0	1451	1983.148653197789	1
0	1455	1985.910110982535	0
0	1461	1988.160899272767	1
0	1467	1991.996026209392	0
0	1477	2007.738723232812	1
0	1478	2008.477391397184	0
0	1511	2060.807548590512	1
0	1517	2067.109760546607	2
0	1520	2071.845445929835	1
0	1522	2071.982805895532	0
0	1604	2183.042642085445	1
0	1605	2183.989284059639	0
0	1691	2277.610317728012	1
0	1692	2280.055573478799	0
0	1696	2283.32553123047	1
0	1697	2291.195477963765	0
0	1706	2298.776475243644	1
0	1707	2299.762720140845	0
0	1821	2442.964800416182	1
0	1822	2460.053898894886	0
0	1834	2467.171423867098	1
0	1844	2476.444108019059	2
0	1845	2479.14680526332	1
0	1855	2490.456396416463	0
0	2059	2743.49909043107	1
0	2067	2747.114306082983	0
0	2103	2759.539831561961	1
0	2108	2766.766281427877	0
0	2152	2806.545227206513	1
0	2153	2813.360676785821	0
0	2157	2815.23732879599	1
0	2158	2816.475524199934	0
0	2301	2996.038817557045	1
0	2302	2996.299935663505	0
0	2382	3078.771171825911	1
0	2383	3078.894340049146	0
0	2496	3207.691127856439	1
0	2497	3212.674299691514	0
0	2549	3249.849449996769	1
0	2550	3249.893298004416	0
0	2684	3402.148192411896	1
0	2687	3407.20491405779	0
0	2784	3507.742807178317	1
0	2792	3517.563496221471	0
0	2847	3576.837389695173	1
0	2848	3577.269958485551	0
0	2884	3627.040651130328	1
0	2885	3627.759711886135	0
0	3032	3823.287530764816	1
0	3035	3826.529031736466	0
0	3091	3915.855810261536	1
0	3092	3917.235280306152	0
0	3096	3921.830417206703	1
0	3099	3922.672288877653	2
0	3100	3932.396427137538	1
0	3102	3938.073500937449	0
0	3126	3985.55980781262	1
0	3127	3990.431584920399	0
0	3191	4065.449405796183	1
0	3195	4069.061337588913	0
0	3231	4109.20178643062	1
0	3232	4121.330948067334	0
0	3279	4195.951259210461	1
0	3282	4201.861434944489	0
0	3309	4229.867102663103	1
0	3312	4242.937403493295	0
0	3429	4402.624238140668	1
0	3432	4404.36139382469	2
0	3433	4407.076280612451	1
0	3435	4409.120061088959	0
0	3596	4654.039802735496	1
0	3600	4654.503583471004	0
0	3666	4724.920297727918	1
0	3675	4735.640054608866	0
0	3691	4783.776189042239	1
0	3700	4789.588241942741	2
0	3707	4794.478843293873	3
0	3708	4802.55671745996	2
0	3715	4803.322275145294	1
0	3722	4808.327469460358	0
0	3726	4808.943041970287	1
0	3727	4810.952186395931	0
0	3736	4814.070842083669	1
0	3737	4815.357159883551	0
0	3751	4838.660202487222	1
0	3752	4839.453554611584	0
0	3901	5099.512052152754	1
0	3905	5107.128103303559	0
0	3987	5201.337686177798	1
0	3988	5201.461052796797	0
0	3992	5204.575703281449	1
0	3995	5204.969903854766	2
0	3999	5206.862485827012	1
0	4003	5207.529474873684	2
0	4014	5211.034376157559	1
0	4021	5214.848337650296	0
0	4032	5219.172890552473	1
0	4039	5220.452700670741	2
0	4040	5228.290249039199	1
0	4042	5232.01027771866	0
0	4205	5424.168546370331	1
0	4210	5425.484105635636	2
0	4215	5433.440658426228	1
0	4238	5443.390744922608	2
0	4241	5445.206499760917	3
0	4244	5445.868869681178	2
0	4246	5446.18547681886	1
0	4267	5456.729931198297	0
0	4361	5558.193265719453	1
0	4362	5561.855536119923	0
0	4407	5624.064664543851	1
0	4408	5624.985949107763	0
0	4551	5796.433682909731	1
0	4554	5796.992989765185	2
0	4558	5801.170991929621	1
0	4562	5801.81432864655	2
0	4565	5813.377096286572	1
0	4572	5820.94585753584	0
0	4576	5821.42337791476	1
0	4577	5828.093297430668	0
0	4651	5922.321803052782	1
0	4654	5922.682514243656	2
0	4663	5928.110116239709	1
0	4665	5931.617243059472	0
0	4676	5932.160916924558	1
0	4680	5936.086740425874	0
0	4751	6029.277769816641	1
0	4755	6031.95907583864	0
0	4796	6071.049598994848	1
0	4802	6078.150006376657	0
0	4826	6095.375690252415	1
0	4827	6097.004513591406	0
0	4861	6134.693935449618	1
0	4862	6144.853241465719	0
0	4869	6145.441856286767	1
0	4874	6147.593162098248	2
0	4875	6154.392000135957	1
0	4877	6154.615329718294	0
1	23	23.46854822214	0
1	39	55.996097811712	0
1	43	56.461930655207	0.034478772602
1	58	80.98370826871	0
1	65	100.632792020025	7.705084085323
1	72	106.437440012164	0.304798434183
1	89	119.852447543437	0
1	98	127.669236284225	0
1	108	134.147617873285	0
1	112	136.644144395249	1.024585451598
1	148	189.945954008899	0
1	155	194.260980033825	1.668420564371
1	174	210.576937374719	17.754999707623
1	181	212.684818659623	13.974512128282
1	189	214.634569019265	15.294166564778
1	198	220.185405555553	19.815205206144
1	205	229.484680233096	15.882848011272
1	217	248.642230991573	4.80830604156
1	281	353.212005615838	0
1	296	364.27978258072	0
1	318	380.853546304279	0
1	323	400.026234466621	0
1	327	411.59391303927	3.30754168064
1	333	413.257709989528	0
1	338	426.262411373196	0
1	354	457.40202232359	0
1	366	472.067686971621	0
1	383	503.577931842643	0
1	398	512.677552853112	0
1	448	582.917889960892	0
1	453	590.042322086598	0
1	463	608.498489840254	0
1	491	648.412409121327	0
1	518	682.247086916977	0
1	523	686.556398376298	0
1	528	688.979830989624	0
1	538	697.045519999585	1.831472203125
1	550	701.685216179214	0.795741594808
1	556	704.947466035279	0
1	568	738.549756930722	0
1	593	769.589372385703	0
1	616	803.922809567377	0
1	646	841.474106197064	0
1	651	845.185132530597	0
1	659	852.41775226152	0
1	671	865.92811329986	0
1	683	876.458909840761	4.049651860174
1	685	879.834080578279	6.222716759513
1	703	908.26912550332	0
1	715	924.401883719954	9.654388040518
1	726	931.116700977248	0
1	758	962.931095951374	0
1	771	974.558181057687	0
1	777	978.663512964916	3.595398260834
1	796	1003.897680004452	0
1	803	1019.425757554309	0
1	808	1028.428206848855	0
1	813	1033.596589559034	0
1	828	1065.470929480527	0
1	838	1096.905795766203	0
1	883	1195.318847746335	0
1	888	1198.412494900814	0
1	898	1211.521638223779	0
1	903	1234.631083372069	0
1	918	1262.573813092614	0
1	923	1265.179717325499	0
1	928	1268.24116997	0
1	938	1291.070128866177	0
1	947	1302.02793858984	6.009505730604
1	963	1316.313625256593	0
1	968	1323.914726007423	0
1	978	1328.494968245078	2.848032671661
1	987	1334.370146736479	2.72290620276
1	1003	1351.032247769759	0
1	1016	1365.141108404749	0
1	1023	1378.172604078942	0
1	1038	1404.049242937181	0
1	1078	1452.491051470034	0
1	1083	1470.83063530184	0
1	1121	1521.35142091159	0
1	1145	1540.680892793124	0
1	1155	1549.465336976363	3.765019092538
1	1186	1604.129246192678	0
1	1198	1626.260472789665	0
1	1205	1635.799005592288	9.442156738176
1	1207	1636.335211931136	6.975688466857
1	1213	1644.867871551374	0
1	1218	1661.879124911174	0
1	1233	1674.705346463929	0
1	1243	1680.940273793845	0
1	1269	1708.02046902115	0
1	1324	1783.070952472936	0
1	1346	1811.214018798234	0
1	1361	1846.595222486751	0
1	1383	1873.370372142129	0
1	1398	1892.527477796299	0
1	1408	1909.90692847235	0
1	1412	1921.00189272607	7.602761040322
1	1441	1976.859679869021	0
1	1451	1983.148653197789	5.46125804683
1	1455	1985.910110982535	4.703556531644
1	1467	1991.996026209392	3.835126936625
1	1478	2008.477391397184	0.738668164372
1	1488	2030.516110902058	0
1	1503	2057.098379209304	0
1	1508	2060.656351218443	0
1	1520	2071.845445929835	11.037897339323
1	1522	2071.982805895532	4.873045348925
1	1554	2124.582813301931	0
1	1571	2144.527059542889	0
1	1601	2180.419535118575	0
1	1605	2183.989284059639	0.946641974194
1	1617	2188.596953621134	0
1	1633	2202.426439106251	0
1	1641	2209.981594609786	0
1	1661	2236.552280357618	0
1	1688	2276.097297286019	0
1	1692	2280.055573478799	2.445255750787
1	1697	2291.195477963765	7.869946733295
1	1703	2295.742769420845	0
1	1707	2299.762720140845	0.986244897201
1	1721	2318.156641376985	0
1	1726	2324.839658651677	0
1	1733	2345.041871948947	0
1	1738	2345.764310995151	0
1	1758	2355.714000087292	0
1	1818	2440.182924361532	0
1	1822	2460.053898894886	17.089098478704
1	1831	2465.862474979606	0
1	1845	2479.14680526332	11.975381396222
1	1855	2490.456396416463	14.012288397404
1	1866	2505.272431464592	0
1	1871	2506.110860495843	0
1	1896	2566.451377601388	0
1	1923	2600.760695905098	0
1	1939	2609.405401207984	0
1	1981	2676.669586037668	0
1	1988	2679.491092330435	0
1	1993	2704.050194832629	0
1	2008	2709.280736950375	0
1	2034	2725.301624891556	0
1	2046	2734.577913232902	0
1	2067	2747.114306082983	3.615215651913
1	2089	2755.520107199868	0
1	2108	2766.766281427877	7.226449865916
1	2129	2801.072208864405	0
1	2142	2803.447983194312	0
1	2153	2813.360676785821	6.815449579308
1	2158	2816.475524199934	1.238195403944
1	2168	2828.559393576902	0
1	2183	2846.870645993367	0
1	2193	2864.732976120948	0
1	2216	2888.763011129107	0
1	2226	2897.462223494821	0
1	2244	2908.208319455702	0
1	2258	2921.805074858905	0
1	2263	2927.296174367675	0
1	2278	2957.676514609313	0
1	2283	2973.825132593656	0
1	2288	2986.111615674529	0
1	2296	2991.026820871599	0
1	2302	2996.299935663505	0.26111810646
1	2308	2999.629766916137	0
1	2323	3017.571132744255	0
1	2331	3028.297965841919	0
1	2336	3029.725930129287	0
1	2346	3039.800503963914	0
1	2367	3067.342182280255	0
1	2377	3078.312512090313	0
1	2383	3078.894340049146	0.123168223235
1	2407	3115.583872749051	0
1	2412	3117.207231023407	0
1	2443	3157.339972712917	0
1	2466	3190.382731802301	0
1	2473	3198.387524881344	0
1	2486	3203.764048130516	0
1	2493	3206.27107063118	0
1	2497	3212.674299691514	4.983171835075
1	2508	3219.64950224252	0
1	2522	3232.460196485353	0
1	2538	3240.992628354743	0
1	2550	3249.893298004416	0.043848007647
1	2563	3267.384092758636	0
1	2571	3272.708640994624	0
1	2576	3280.533454715474	0
1	2589	3297.420919452784	0
1	2613	3328.935608181082	0
1	2629	3347.143833503124	0
1	2668	3391.774404372285	0
1	2679	3399.675442619091	0
1	2687	3407.20491405779	5.056721645894
1	2721	3442.266360043386	0
1	2733	3455.018497681196	0
1	2738	3456.409206369513	0
1	2748	3476.105840756221	0
1	2753	3492.283231839423	0
1	2761	3494.464046156671	0
1	2769	3495.400590336718	0
1	2781	3502.747058101185	0
1	2792	3517.563496221471	9.820689043154
1	2811	3531.427632189552	0
1	2816	3540.110813010426	0
1	2844	3575.951858363887	0
1	2848	3577.269958485551	0.432568790378
1	2856	3579.338497241024	0
1	2881	3626.003530668824	0
1	2885	3627.759711886135	0.719060755807
1	2894	3636.588311466511	0
1	2906	3654.237965241564	0
1	2913	3658.244553725471	0
1	2918	3663.953544539882	0
1	2933	3689.831352435319	0
1	2938	3697.492453900402	0
1	2963	3735.791031301232	0
1	2973	3755.702074780312	0
1	2978	3762.988911989561	0
1	3029	3823.228319453709	0
1	3035	3826.529031736466	3.24150097165
1	3056	3849.860046407285	0
1	3061	3851.339295873764	0
1	3088	3907.876964377822	0
1	3092	3917.235280306152	1.379470044616
1	3100	3932.396427137538	10.566009930835
1	3102	3938.073500937449	15.401212059796
1	3113	3950.563866707775	0
1	3123	3985.146969890295	0
1	3127	3990.431584920399	4.871777107779
1	3136	4007.693998520584	0
1	3141	4009.498772385683	0
1	3154	4025.109680951842	0
1	3164	4028.502081405525	0
1	3181	4060.192071811944	0
1	3195	4069.061337588913	3.61193179273
1	3218	4088.943107610813	0
1	3228	4109.02222156237	0
1	3232	4121.330948067334	12.129161636714
1	3238	4125.836518426133	0
1	3268	4169.154928352913	0
1	3276	4195.694538645697	0
1	3282	4201.861434944489	5.910175734028
1	3306	4225.497416720987	0
1	3312	4242.937403493295	13.070300830192
1	3323	4250.671916951635	0
1	3331	4267.225805271967	0
1	3359	4315.199462408718	0
1	3393	4359.958631151965	0
1	3419	4395.618768114626	0
1	3433	4407.076280612451	4.452042471783
1	3435	4409.120061088959	4.758667264269
1	3443	4411.995065396747	0
1	3463	4444.94386539521	0
1	3471	4449.07507897264	0
1	3546	4557.688556512368	0
1	3571	4612.440477631389	0
1	3588	4645.57266914704	0
1	3593	4652.146445415599	0
1	3600	4654.503583471004	0.463780735508
1	3619	4674.374860256572	0
1	3653	4718.7217766672	0
1	3663	4724.552519990609	0
1	3675	4735.640054608866	10.719756880948
1	3688	4780.972143284939	0
1	3708	4802.55671745996	18.780528417721
1	3715	4803.322275145294	13.734033202553
1	3722	4808.327469460358	13.848626166485
1	3727	4810.952186395931	2.009144425644
1	3733	4813.691854154692	0
1	3737	4815.357159883551	1.286317799882
1	3748	4837.346960310595	0
1	3752	4839.453554611584	0.793352124362
1	3763	4866.846485473109	0
1	3786	4895.037048281391	0
1	3793	4903.942992340348	0
1	3801	4907.510511441765	0
1	3808	4936.46315260355	0
1	3851	5007.297409830295	0
1	3864	5022.313788854997	0
1	3883	5075.641991927124	0
1	3893	5079.665263397284	0
1	3898	5096.839914156248	0
1	3905	5107.128103303559	7.616051150805
1	3952	5146.05064940991	0
1	3969	5158.331643694582	0
1	3984	5191.185245096403	0
1	3988	5201.461052796797	0.123366618999
1	3999	5206.862485827012	2.286782545563
1	4014	5211.034376157559	6.064472302793
1	4021	5214.848337650296	7.318862776612
1	4040	5228.290249039199	9.117358486726
1	4042	5232.01027771866	11.557577047919
1	4068	5257.424668102822	0
1	4073	5262.469522889677	0
1	4078	5266.176938223131	0
1	4121	5326.00083589826	0
1	4133	5337.542991440396	0
1	4138	5352.90405116935	0
1	4163	5375.794397254835	0
1	4173	5384.909844727514	0
1	4181	5389.859711168379	0
1	4193	5411.849544559482	0
1	4215	5433.440658426228	9.272112055897
1	4244	5445.868869681178	20.384764045542
1	4246	5446.18547681886	2.794731896252
1	4267	5456.729931198297	11.52343143738
1	4276	5463.106636885569	0
1	4314	5508.686807199393	0
1	4328	5528.908172021826	0
1	4333	5535.994945963117	0
1	4358	5557.737376009634	0
1	4362	5561.855536119923	3.66227040047
1	4399	5619.696331696416	0
1	4408	5624.985949107763	0.921284563912
1	4431	5642.476537938661	0
1	4441	5650.752035200129	0
1	4446	5652.057432822181	0
1	4456	5665.910281744991	0
1	4474	5682.679000720207	0
1	4493	5714.452229244422	0
1	4506	5743.508395573917	0
1	4529	5774.048357779816	0
1	4548	5790.293766744434	0
1	4558	5801.170991929621	4.73730901989
1	4565	5813.377096286572	16.384106521387
1	4572	5820.94585753584	19.13152888929
1	4577	5828.093297430668	6.669919515908
1	4636	5903.15579513076	0
1	4648	5920.763511511205	0
1	4663	5928.110116239709	5.788313186927
1	4665	5931.617243059472	8.934728815816
1	4673	5932.041806445936	0
1	4680	5936.086740425874	3.925823501316
1	4703	5965.281938715102	0
1	4726	5978.46530182483	0
1	4743	6021.985235890107	0
1	4748	6027.17840536127	0
1	4755	6031.95907583864	2.681306021999
1	4779	6050.240396938685	0
1	4789	6054.273224050574	0
1	4802	6078.150006376657	7.100407381809
1	4811	6084.76991383323	0
1	4821	6092.452037690415	0
1	4827	6097.004513591406	1.628823338991
1	4833	6098.228748473572	0
1	4838	6113.718476704547	0
1	4858	6121.766609290224	0
1	4862	6144.853241465719	10.159306016101
1	4875	6154.392000135957	8.95014384919
1	4877	6154.615329718294	7.022167620046
1	4891	6165.106383866959	0
1	4898	6171.060569455744	0
1	4908	6206.697892658324	0
1	4921	6236.301569418275	0
1	4958	6319.228954307215	0
1	4978	6340.892221510876	0
1	4993	6361.477316451428	0
1	4998	6372.988052303094	0
2	0	0	0
2	6	9.919221863913	1
2	7	14.16162687343	0
2	126	159.329391720969	1
2	130	162.078189867132	0
2	185	212.731270597622	1
2	196	217.504462556131	0
2	376	485.281440076912	1
2	377	487.060044803263	0
2	494	648.716305201806	1
2	497	659.048147944465	0
2	506	671.97009028267	1
2	509	674.582454293988	2
2	510	677.832642265772	1
2	512	678.794829589142	0
2	641	828.186462744664	1
2	642	829.420292592142	0
2	741	948.180083511581	1
2	744	951.132138240835	2
2	745	953.283671690767	1
2	747	954.455110192575	0
2	977	1328.081777212255	1
2	980	1329.115091402294	0
2	1132	1524.56743909571	1
2	1137	1528.66538916953	2
2	1138	1539.301213300694	1
2	1148	1542.423717438863	0
2	1181	1596.1928700126	1
2	1182	1604.102227641067	0
2	1266	1707.746882906391	1
2	1270	1710.035637044219	0
2	1274	1710.193249734719	1
2	1275	1715.238728871923	0
2	1281	1719.824153516812	1
2	1282	1720.459709627186	0
2	1321	1779.933800925018	1
2	1325	1784.801932911872	0
2	1366	1848.213693769396	1
2	1369	1848.869017113252	2
2	1370	1857.964811200084	1
2	1372	1859.323133765588	0
2	1800	2401.786788484712	1
2	1803	2403.912066526534	2
2	1804	2404.353582145358	1
2	1806	2406.651617455563	0
2	1974	2672.637872757149	1
2	1975	2673.068590279216	0
2	2029	2717.97857143206	1
2	2035	2727.134359569492	0
2	2054	2741.206169134601	1
2	2055	2741.624943279361	0
2	2098	2756.507907714517	1
2	2112	2770.479475709357	0
2	2121	2792.133202795342	1
2	2122	2797.313024402307	0
2	2132	2801.594216380003	1
2	2135	2801.645309484983	2
2	2138	2802.44103402447	1
2	2147	2803.845211504404	2
2	2148	2806.125611811054	1
2	2160	2818.49864207438	0
2	2211	2885.998584034545	1
2	2212	2887.689855512362	0
2	2421	3121.07364520053	1
2	2425	3129.268065083759	0
2	2516	3231.961886339041	1
2	2527	3232.756456942696	2
2	2530	3234.561002718815	1
2	2532	3234.728639103452	0
2	2696	3422.459485612223	1
2	2699	3422.730464379868	2
2	2700	3424.541250022541	1
2	2704	3425.03391033172	2
2	2705	3428.051797722026	1
2	2712	3430.465764607154	2
2	2713	3433.011899693518	1
2	2717	3438.061339311195	0
2	2724	3445.270681907128	1
2	2725	3445.421740412781	0
2	2992	3787.045638217549	1
2	2997	3787.236365363635	2
2	3000	3788.103646120586	1
2	3007	3791.716253438901	0
2	3026	3817.967634326917	1
2	3033	3824.439984118005	0
2	3071	3866.776219289585	1
2	3072	3869.332479927342	0
2	3151	4022.799108327211	1
2	3157	4026.939152038955	0
2	3161	4027.199240706648	1
2	3165	4029.812619630535	0
2	3301	4224.878998547881	1
2	3302	4225.042495239141	0
2	3390	4358.311281983004	1
2	3394	4363.898498730025	0
2	3398	4365.792159365343	1
2	3399	4366.204752032328	0
2	3422	4396.669612020943	1
2	3423	4397.713421136731	0
2	3491	4472.053927775182	1
2	3492	4478.794326637083	0
2	3516	4493.939604722316	1
2	3517	4494.180570798143	0
2	3536	4530.645250410334	1
2	3537	4531.90183829924	0
2	3616	4671.916468792788	1
2	3627	4683.499743904838	0
2	3927	5131.014627142389	1
2	3928	5135.778182959564	0
2	3937	5139.342897448518	1
2	3938	5139.423611574086	0
2	3981	5188.734127156274	1
2	4009	5209.065429056814	2
2	4010	5209.653021432372	1
2	4012	5211.003991669317	0
2	4020	5213.279551114704	1
2	4027	5217.320090622156	2
2	4028	5218.474082557157	1
2	4033	5219.99934522771	0
2	4147	5359.264719957762	1
2	4148	5361.904221679374	0
2	4384	5595.508978635784	1
2	4387	5596.134703311161	2
2	4390	5605.17054339345	1
2	4394	5609.740146780467	2
2	4395	5616.5105344309	1
2	4402	5621.808426285758	2
2	4403	5623.999449187433	1
2	4410	5625.117093559186	0
2	4416	5633.078080889706	1
2	4417	5634.577437973151	0
2	4461	5671.824216515555	1
2	4465	5676.485555853557	0
2	4471	5680.071435811049	1
2	4475	5689.789954871495	0
2	4501	5727.972884644618	1
2	4502	5743.226611141758	0
2	4601	5863.27257095845	1
2	4602	5865.233796659074	0
2	4714	5969.633076497163	1
2	4720	5971.565261797056	0
2	4776	6049.96236599407	1
2	4782	6051.168301920812	2
2	4785	6052.825787709213	1
2	4790	6056.385867203304	0
2	4886	6159.800874264217	1
2	4887	6161.43309072489	0
3	3	4.659049349728	0
3	7	14.16162687343	4.242405009517
3	34	51.082057890834	0
3	64	96.68427343156	0
3	76	106.869510370831	0
3	101	128.519693855994	0
3	121	155.966079011906	0
3	130	162.078189867132	2.748798146163
3	180	212.046613628697	0
3	196	217.504462556131	4.773191958509
3	223	265.856247273499	0
3	258	306.713913910715	0
3	268	322.777286825389	0
3	341	429.731632429901	0
3	351	454.295172828397	0
3	363	469.868111788172	0
3	377	487.060044803263	1.778604726351
3	386	506.805803968889	0
3	393	510.57639293141	0
3	409	523.631281400995	0
3	421	533.571187291996	0
3	458	604.790199676105	0
3	468	622.256427694455	0
3	478	635.250793749561	0
3	483	638.353430598173	0
3	497	659.048147944465	10.331842742659
3	503	670.434414506811	0
3	510	677.832642265772	5.862551983102
3	512	678.794829589142	4.212375295154
3	531	689.089274273468	0
3	544	700.700057850013	0
3	563	709.987313004408	0
3	578	755.81321273636	0
3	583	763.480696300311	0
3	596	771.034486545251	0
3	603	778.910150419402	0
3	621	810.899946906173	0
3	631	816.674495978444	0
3	638	824.647244292529	0
3	642	829.420292592142	1.233829847478
3	668	860.732677010516	0
3	676	870.221247658585	0
3	693	891.484706874566	0
3	714	922.026071133547	0
3	723	929.700503376758	0
3	738	947.054585036891	0
3	745	953.283671690767	5.103588179186
3	747	954.455110192575	3.32297195174
3	753	961.875770201643	0
3	763	965.503667807319	0
3	788	1001.903568750569	0
3	793	1003.516509293991	0
3	816	1037.801204453587	0
3	823	1060.011419679783	0
3	833	1084.548652880966	0
3	843	1113.511487458223	0
3	853	1129.549128979984	0
3	858	1140.445949818001	0
3	863	1146.077567636259	0
3	873	1181.147117003441	0
3	941	1295.533357113571	0
3	951	1302.641524164792	0
3	974	1325.980417654478	0
3	980	1329.115091402294	1.033314190039
3	993	1338.610551589034	0
3	1013	1364.717166934138	0
3	1053	1431.016197646486	0
3	1058	1434.791491953771	0
3	1063	1439.550198960151	0
3	1073	1450.184238443856	0
3	1086	1471.641922554451	0
3	1114	1513.075133300466	0
3	1126	1522.958130369399	0
3	1138	1539.301213300694	14.733774204984
3	1148	1542.423717438863	13.758328269333
3	1166	1575.304906494328	0
3	1178	1594.440601661923	0
3	1182	1604.102227641067	7.909357628467
3	1236	1674.797424754508	0
3	1246	1681.133479122365	0
3	1251	1682.842531426265	0
3	1261	1686.323806264916	0
3	1270	1710.035637044219	2.288754137828
3	1275	1715.238728871923	5.045479137204
3	1282	1720.459709627186	0.635556110374
3	1297	1752.251966243632	0
3	1313	1773.922562445546	0
3	1318	1777.953122746156	0
3	1325	1784.801932911872	4.868131986854
3	1338	1800.849351718482	0
3	1349	1812.954843430607	0
3	1358	1833.284940732961	0
3	1370	1857.964811200084	9.751117430688
3	1372	1859.323133765588	10.454116652336
3	1391	1889.783147817444	0
3	1418	1924.097470457547	0
3	1423	1931.947109153304	0
3	1428	1948.674477139419	0
3	1438	1969.819909173094	0
3	1464	1988.984821412646	0
3	1528	2080.295853808004	0
3	1538	2106.038545105136	0
3	1559	2129.003823283101	0
3	1578	2149.180245125217	0
3	1583	2153.773040028975	0
3	1593	2172.383401963796	0
3	1609	2186.091281560398	0
3	1628	2195.469960201928	0
3	1638	2209.965748566002	0
3	1649	2218.734736135456	0
3	1658	2233.151055688558	0
3	1671	2240.898806808989	0
3	1683	2269.165998917444	0
3	1716	2313.59324331821	0
3	1741	2346.888838497925	0
3	1797	2400.570893447228	0
3	1804	2404.353582145358	2.566793660646
3	1806	2406.651617455563	2.739550929029
3	1826	2463.535632445735	0
3	1863	2501.963427047795	0
3	1893	2562.971373539635	0
3	1903	2576.268153528321	0
3	1918	2592.276365681187	0
3	1934	2607.10350720994	0
3	1971	2672.585354255696	0
3	1975	2673.068590279216	0.430717522067
3	1999	2705.123985146907	0
3	2016	2710.627753716273	0
3	2026	2717.204604726663	0
3	2035	2727.134359569492	9.155788137432
3	2049	2735.003007637053	0
3	2055	2741.624943279361	0.41877414476
3	2095	2756.334484414572	0
3	2112	2770.479475709357	13.97156799484
3	2118	2787.859068488766	0
3	2122	2797.313024402307	5.179821606965
3	2138	2802.44103402447	0.846817644467
3	2148	2806.125611811054	4.480302326071
3	2160	2818.49864207438	14.653430569976
3	2173	2835.865292302833	0
3	2199	2874.098863370383	0
3	2208	2882.435726335916	0
3	2212	2887.689855512362	1.691271477817
3	2238	2906.037129924109	0
3	2311	3006.079481180101	0
3	2328	3026.759795672132	0
3	2343	3037.761856459421	0
3	2374	3077.316997892519	0
3	2404	3115.568180175151	0
3	2425	3129.268065083759	8.194419883229
3	2438	3139.272203861862	0
3	2448	3170.677197947312	0
3	2483	3203.37965584449	0
3	2503	3217.198084994415	0
3	2511	3226.022261319576	0
3	2530	3234.561002718815	2.599116379774
3	2532	3234.728639103452	1.972182160756
3	2541	3244.563982766873	0
3	2558	3262.373951416308	0
3	2596	3301.288745609651	0
3	2603	3306.975719009843	0
3	2621	3339.459523432947	0
3	2643	3367.786967289347	0
3	2657	3377.345698533675	0
3	2671	3393.006184923815	0
3	2693	3421.566304841012	0
3	2700	3424.541250022541	2.081764410318
3	2705	3428.051797722026	5.321333342158
3	2713	3433.011899693518	7.977989361798
3	2717	3438.061339311195	7.595574704041
3	2725	3445.421740412781	0.151058505653
3	2758	3493.41201761586	0
3	2822	3541.958898547465	0
3	2831	3549.569367885197	0
3	2841	3573.605129009203	0
3	2868	3608.71516926382	0
3	2873	3616.138462306067	0
3	2878	3623.755175688107	0
3	2901	3642.989773900322	0
3	2921	3667.913599216635	0
3	2943	3709.864287456598	0
3	2953	3728.632301233712	0
3	2968	3746.124288358861	0
3	2986	3780.566302533132	0
3	3000	3788.103646120586	1.058007903037
3	3007	3791.716253438901	4.479888075266
3	3013	3795.724496948358	0
3	3018	3796.460385075188	0
3	3023	3812.777172730927	0
3	3033	3824.439984118005	6.472349791088
3	3048	3843.922039783647	0
3	3066	3863.204692120483	0
3	3072	3869.332479927342	2.556260637757
3	3083	3906.336420489093	0
3	3106	3938.330330369308	0
3	3118	3982.622237263894	0
3	3133	4005.172259741424	0
3	3148	4021.903807889302	0
3	3157	4026.939152038955	4.140043711744
3	3165	4029.812619630535	2.613378923887
3	3203	4076.79730174906	0
3	3211	4084.75254250821	0
3	3221	4089.31017432278	0
3	3298	4224.504087793099	0
3	3302	4225.042495239141	0.16349669126
3	3318	4248.092961954573	0
3	3354	4311.974306629661	0
3	3367	4321.362786641005	0
3	3387	4347.13452961486	0
3	3394	4363.898498730025	5.587216747021
3	3399	4366.204752032328	0.412592666985
3	3411	4391.629696345263	0
3	3423	4397.713421136731	1.043809115788
3	3458	4441.982438426518	0
3	3477	4450.237191375709	0
3	3486	4456.295434099475	0
3	3492	4478.794326637083	6.740398861901
3	3501	4482.349169774073	0
3	3513	4493.738490510411	0
3	3517	4494.180570798143	0.240966075827
3	3528	4509.983858689183	0
3	3533	4525.027957026107	0
3	3537	4531.90183829924	1.256587888906
3	3543	4554.799277120545	0
3	3558	4582.202053181996	0
3	3563	4597.396391794723	0
3	3583	4633.768892327906	0
3	3613	4668.93367761262	0
3	3627	4683.499743904838	11.58327511205
3	3636	4690.648042057394	0
3	3648	4708.798600654117	0
3	3669	4725.860529788863	0
3	3681	4752.197570254773	0
3	3712	4803.114002868608	0
3	3719	4805.705011801853	0
3	3758	4843.824309022468	0
3	3776	4880.404982510372	0
3	3783	4885.744354462341	0
3	3798	4905.752765521247	0
3	3818	4964.148831071176	0
3	3839	4997.458277914124	0
3	3878	5059.472317150533	0
3	3922	5127.668742103186	0
3	3928	5135.778182959564	4.763555817175
3	3938	5139.423611574086	0.080714125568
3	3962	5149.980395602538	0
3	3978	5188.51263250893	0
3	4010	5209.653021432372	20.918894276098
3	4012	5211.003991669317	1.938562612503
3	4028	5218.474082557157	5.194531442453
3	4033	5219.99934522771	2.679254605554
3	4046	5237.906009913609	0
3	4081	5266.778515772662	0
3	4102	5293.613331879386	0
3	4116	5320.919171163288	0
3	4128	5329.577170591938	0
3	4144	5359.030488408751	0
3	4148	5361.904221679374	2.639501721612
3	4158	5371.359590496978	0
3	4176	5385.533833242923	0
3	4202	5420.875483343953	0
3	4219	5434.741410762972	0
3	4224	5438.872733100804	0
3	4254	5453.83784029751	0
3	4259	5455.216725000533	0
3	4273	5462.477780734808	0
3	4288	5484.453770250106	0
3	4293	5492.581717158434	0
3	4339	5541.693145769618	0
3	4349	5543.776384242066	0
3	4381	5590.989263036299	0
3	4390	5605.17054339345	9.661564757666
3	4395	5616.5105344309	20.375831119739
3	4403	5623.999449187433	14.259302406966
3	4410	5625.117093559186	3.308667273428
3	4417	5634.577437973151	1.499357083445
3	4423	5638.554702786123	0
3	4453	5659.470179887001	0
3	4465	5676.485555853557	4.661339338002
3	4475	5689.789954871495	9.718519060446
3	4486	5707.413221297315	0
3	4498	5725.071069102495	0
3	4502	5743.226611141758	15.25372649714
3	4523	5767.374130394854	0
3	4541	5778.795648530154	0
3	4569	5816.64015166632	0
3	4586	5836.97738408665	0
3	4596	5853.124471448835	0
3	4602	5865.233796659074	1.961225700624
3	4611	5881.434140171649	0
3	4626	5891.491546559707	0
3	4641	5909.846473545239	0
3	4657	5925.206760497539	0
3	4679	5935.931699354966	0
3	4696	5961.038757839155	0
3	4708	5967.519255547576	0
3	4720	5971.565261797056	1.932185299893
3	4754	6030.103624048738	0
3	4773	6046.434316631647	0
3	4785	6052.825787709213	2.863421715143
3	4790	6056.385867203304	5.217565282492
3	4799	6072.347780729938	0
3	4818	6091.523041246244	0
3	4841	6113.747403160713	0
3	4883	6159.798723401192	0
3	4887	6161.43309072489	1.632216460673
3	4918	6226.884895710524	0
3	4951	6300.430029397753	0
3	4971	6335.58383161619	0
4	0	0	0
4	31	46.675903631501	1
4	35	51.419043942501	0
4	171	208.277919645316	1
4	172	209.776861682435	0
4	209	231.509374055175	1
4	210	243.215017340731	0
4	231	269.602357602583	1
4	232	271.066952679221	0
4	241	294.439393928957	1
4	244	296.679725283594	2
4	245	298.346332822383	1
4	247	298.685112543957	0
4	251	299.810938419275	1
4	252	299.933973283655	0
4	299	364.39869171451	1
4	300	365.423147772161	0
4	406	522.779091331161	1
4	410	525.452188317391	0
4	416	528.571404519542	1
4	417	529.553228964617	0
4	431	557.204639861277	1
4	434	558.096166743517	2
4	437	558.695151622864	3
4	438	565.492129690375	2
4	440	567.033131506946	1
4	442	575.418118130152	0
4	611	800.005817828896	1
4	612	802.39608517398	0
4	909	1248.697564195699	1
4	912	1254.180623610332	0
4	1101	1499.800748174186	1
4	1102	1501.081822009034	0
4	1106	1502.781619532301	1
4	1109	1506.034446809929	2
4	1110	1513.058995873515	1
4	1117	1519.495762255402	0
4	1129	1523.015584080074	1
4	1133	1526.212970176612	0
4	1142	1540.080554011481	1
4	1146	1541.916384565045	0
4	1171	1578.280023178353	1
4	1172	1579.419022471824	0
4	1226	1663.995206683532	1
4	1227	1667.314733729142	0
4	1291	1748.642726960617	1
4	1294	1750.634475644234	2
4	1298	1754.718472395004	1
4	1304	1758.610600427147	2
4	1305	1760.320016381762	1
4	1307	1770.150320477877	0
4	1474	2007.624632911872	1
4	1482	2011.965399314345	0
4	1496	2035.324962957299	1
4	1497	2036.372552285795	0
4	1551	2121.719572666161	1
4	1555	2126.096942372679	0
4	1614	2188.546913519986	1
4	1618	2189.036092786039	0
4	1674	2241.497681435019	1
4	1677	2253.602558811991	0
4	1791	2396.038191765585	1
4	1794	2397.231151393034	2
4	1808	2407.846731398911	1
4	1810	2411.097220050722	0
4	1881	2517.609219259209	1
4	1882	2517.875478637749	0
4	1911	2589.883732533301	1
4	1912	2590.802371168242	0
4	1931	2605.945985440413	1
4	1935	2609.203949064593	0
4	1951	2642.028430979963	1
4	1952	2646.902536767212	0
4	2086	2754.998598004717	1
4	2092	2755.696211884931	2
4	2099	2759.081300831754	1
4	2104	2761.402710350539	0
4	2247	2909.299795614254	1
4	2250	2911.906036776492	0
4	2356	3049.878463426337	1
4	2357	3050.564778419802	0
4	2361	3053.249916509523	1
4	2364	3056.50885390514	2
4	2370	3069.412870214529	1
4	2387	3088.350482371242	0
4	2396	3093.030866026293	1
4	2399	3093.762765589218	2
4	2400	3105.065785105959	1
4	2415	3118.845078209491	0
4	2579	3281.530843773223	1
4	2582	3288.561791243476	0
4	2586	3296.280524563751	1
4	2592	3299.623036111184	0
4	2651	3371.435015681454	1
4	2654	3374.757351427205	2
4	2658	3378.23184454708	1
4	2660	3378.472555376646	0
4	2774	3500.29381761709	1
4	2777	3501.487108632106	0
4	2799	3519.52398671088	1
4	2800	3523.750718872691	0
4	2806	3529.78993586835	1
4	2807	3530.358316475237	0
4	2819	3541.702067890733	1
4	2827	3547.341718941155	0
4	2989	3783.906728158478	1
4	2993	3787.120991090168	0
4	3184	4061.924078442814	1
4	3185	4062.839197135484	0
4	3249	4136.892704015991	1
4	3252	4141.215539017369	0
4	3341	4304.454783313322	1
4	3344	4304.854953123182	2
4	3347	4308.598252406533	3
4	3348	4309.632128758538	2
4	3350	4310.790283269736	1
4	3362	4317.954146852443	2
4	3368	4322.332199513286	1
4	3372	4323.147647791749	2
4	3375	4323.35718035572	3
4	3380	4337.213162075565	4
4	3381	4341.871437194736	3
4	3383	4345.981208338593	2
4	3401	4367.364771425094	1
4	3403	4369.01106199955	0
4	3474	4449.220750386549	1
4	3480	4454.056111164529	0
4	3697	4789.005851822955	1
4	3701	4792.655688743402	0
4	3836	4996.855166823338	1
4	3844	4999.228158691519	2
4	3845	5004.154989885326	1
4	3847	5005.982354544945	0
4	3861	5020.495913173529	1
4	3865	5022.487744100244	0
4	3911	5110.067526433418	1
4	3912	5115.875773536643	0
4	3916	5120.22329197826	1
4	3919	5120.841591007503	2
4	3923	5128.850380919557	1
4	3930	5135.867094686425	0
4	3934	5137.639470551015	1
4	3940	5140.826806519488	0
4	3946	5145.472381186634	1
4	3949	5145.727326640843	2
4	3955	5148.318123207004	1
4	3959	5149.004284688706	2
4	3963	5154.47943649179	1
4	3970	5158.563647309975	0
4	4006	5208.567243821675	1
4	4016	5213.16725950815	0
4	4061	5249.173374558444	1
4	4062	5249.367463329977	0
4	4091	5274.26164186923	1
4	4094	5276.243150977724	2
4	4097	5280.894975069741	3
4	4098	5290.66968625969	2
4	4105	5300.83954121962	1
4	4107	5308.995065563626	0
4	4111	5312.015671141558	1
4	4112	5317.050460036886	0
4	4199	5418.468888966886	1
4	4206	5424.877021413963	0
4	4235	5441.274088094245	1
4	4242	5445.688567917495	0
4	4304	5502.650128971796	1
4	4307	5504.705810412785	2
4	4310	5507.462034057303	1
4	4317	5512.892561662016	2
4	4318	5512.930511695256	1
4	4322	5523.972098570632	0
4	4342	5543.133605929692	1
4	4350	5544.959666282653	0
4	4532	5775.330540927346	1
4	4533	5776.218794630847	0
4	4591	5849.17160937554	1
4	4592	5850.098089500543	0
4	4621	5887.918280363183	1
4	4622	5889.017424620343	0
4	4717	5969.867186174132	1
4	4718	5970.912394350242	0
4	4851	6115.954774592418	1
4	4852	6119.14729670066	0
4	4936	6266.879242303509	1
4	4937	6267.85114911826	0
4	4946	6294.930263952023	1
4	4947	6296.222810214041	0
5	11	15.323770075543	0
5	18	21.401154621629	0
5	28	42.87404470884	0
5	35	51.419043942501	4.743140311
5	49	62.542613506241	0
5	79	107.775297920478	0
5	86	116.095966757747	0
5	118	152.466873478211	0
5	129	159.941493136657	0
5	138	180.431744045454	0
5	143	181.814498102862	0
5	168	206.56808020357	0
5	172	209.776861682435	1.498942037119
5	193	214.883159233778	0
5	204	224.953980758051	0
5	210	243.215017340731	11.705643285556
5	228	269.368336347896	0
5	232	271.066952679221	1.464595076638
5	238	292.383609101719	0
5	245	298.346332822383	3.906938893426
5	247	298.685112543957	2.005387260363
5	252	299.933973283655	0.12303486438
5	263	318.440883929472	0
5	273	337.648229414979	0
5	278	353.15697362145	0
5	286	359.310589565405	0
5	291	361.310633059176	0
5	300	365.423147772161	1.024456057651
5	306	367.101664379954	0
5	313	373.732104647061	0
5	348	452.22859296821	0
5	371	478.971794665177	0
5	401	514.683131056095	0
5	410	525.452188317391	2.67309698623
5	417	529.553228964617	0.981824445075
5	428	553.899409987716	0
5	438	565.492129690375	8.287489829098
5	440	567.033131506946	8.936964763429
5	442	575.418118130152	16.722966507288
5	473	626.412287240424	0
5	486	641.414311754311	0
5	534	692.733959125118	0
5	573	744.121768038674	0
5	588	768.210611532911	0
5	608	799.483908615264	0
5	612	802.39608517398	2.390267345084
5	628	816.528214158151	0
5	656	851.553725084975	0
5	698	900.585703712499	0
5	706	910.472742927126	0
5	733	942.789806461524	0
5	768	973.989361468526	0
5	783	982.769790820152	0
5	846	1117.409329374996	0
5	868	1157.684579723807	0
5	878	1189.346672533448	0
5	893	1208.520206705825	0
5	906	1246.23306942892	0
5	912	1254.180623610332	5.483059414633
5	931	1283.500041300787	0
5	956	1305.954270811522	0
5	996	1341.936621600862	0
5	1006	1358.022002041223	0
5	1026	1379.457370692814	0
5	1033	1394.633564848632	0
5	1043	1408.331709352464	0
5	1048	1412.255246757939	0
5	1066	1444.047554023443	0
5	1093	1476.23635846714	0
5	1098	1490.368010651334	0
5	1102	1501.081822009034	1.281073834848
5	1110	1513.058995873515	10.277376341214
5	1117	1519.495762255402	13.461315445473
5	1133	1526.212970176612	3.197386096538
5	1146	1541.916384565045	1.835830553564
5	1163	1574.288320973306	0
5	1172	1579.419022471824	1.138999293471
5	1193	1622.82552819536	0
5	1223	1662.444277558602	0
5	1227	1667.314733729142	3.31952704561
5	1256	1685.605432612082	0
5	1288	1746.4471143456	0
5	1298	1754.718472395004	6.075745434387
5	1305	1760.320016381762	9.685540737528
5	1307	1770.150320477877	11.53972005073
5	1329	1785.688509462741	0
5	1343	1808.705535283365	0
5	1378	1866.518641378629	0
5	1388	1887.921256509896	0
5	1403	1900.61453924973	0
5	1433	1953.329707905881	0
5	1450	1981.636860784301	0
5	1471	1994.409363778784	0
5	1482	2011.965399314345	4.340766402473
5	1493	2032.268523381277	0
5	1497	2036.372552285795	1.047589328496
5	1514	2064.934321917845	0
5	1531	2086.047574726301	0
5	1541	2106.330751041739	0
5	1548	2119.211478883619	0
5	1555	2126.096942372679	4.377369706518
5	1568	2142.079550971433	0
5	1588	2165.130082249604	0
5	1598	2175.992937904011	0
5	1618	2189.036092786039	0.489179266053
5	1644	2213.533289053502	0
5	1668	2240.725927586435	0
5	1677	2253.602558811991	12.104877376972
5	1713	2310.800898484182	0
5	1746	2348.545944537376	0
5	1751	2350.634161480526	0
5	1761	2359.175486594016	0
5	1766	2364.266214916356	0
5	1773	2370.600839348125	0
5	1778	2376.350861679658	0
5	1783	2383.330306304808	0
5	1788	2395.669252522902	0
5	1808	2407.846731398911	11.808539633326
5	1810	2411.097220050722	13.866068657688
5	1839	2472.642457624405	0
5	1849	2482.313108357413	0
5	1854	2486.543221855944	0
5	1878	2512.375123390125	0
5	1882	2517.875478637749	0.26625937854
5	1888	2520.626649216952	0
5	1908	2589.178569833781	0
5	1912	2590.802371168242	0.918638634941
5	1926	2601.624932949534	0
5	1935	2609.203949064593	3.25796362418
5	1948	2625.951872531669	0
5	1952	2646.902536767212	4.874105787249
5	1958	2655.046455583365	0
5	1963	2657.848042830408	0
5	1968	2666.325490240009	0
5	1996	2704.403296543825	0
5	2013	2709.897247560384	0
5	2023	2714.216064107136	0
5	2043	2731.269164322507	0
5	2064	2744.184418441296	0
5	2071	2747.224129746747	0
5	2078	2749.490783719976	0
5	2083	2754.317826587464	0
5	2099	2759.081300831754	4.082702827037
5	2104	2761.402710350539	5.706498465608
5	2126	2799.596183198569	0
5	2178	2837.967438430081	0
5	2188	2862.209306024425	0
5	2196	2867.651290727971	0
5	2223	2893.451530558574	0
5	2233	2901.686813803806	0
5	2241	2907.056716544466	0
5	2250	2911.906036776492	2.606241162238
5	2268	2931.443944553301	0
5	2273	2942.040334414397	0
5	2293	2989.36077139452	0
5	2318	3014.803399333519	0
5	2353	3041.063210834743	0
5	2357	3050.564778419802	0.686314993465
5	2370	3069.412870214529	16.162953705006
5	2387	3088.350482371242	31.841628466102
5	2393	3091.074486067112	0
5	2400	3105.065785105959	12.034919079666
5	2415	3118.845078209491	25.082312620273
5	2424	3127.049598181664	0
5	2431	3133.965545385018	0
5	2451	3173.266253487762	0
5	2458	3176.839731448723	0
5	2463	3188.984746495281	0
5	2478	3202.302672378477	0
5	2519	3232.114640409933	0
5	2544	3245.227854010587	0
5	2566	3270.121564106964	0
5	2582	3288.561791243476	7.030947470253
5	2592	3299.623036111184	3.342511547433
5	2608	3322.008338611343	0
5	2616	3334.302690241414	0
5	2624	3341.197851515052	0
5	2638	3360.562662812815	0
5	2648	3370.09885994925	0
5	2658	3378.23184454708	6.796828865626
5	2660	3378.472555376646	3.715203949441
5	2676	3398.052693690011	0
5	2709	3429.945259929986	0
5	2743	3461.425634205609	0
5	2764	3494.806849654752	0
5	2777	3501.487108632106	1.193291015016
5	2789	3514.012178019789	0
5	2796	3518.880615864925	0
5	2800	3523.750718872691	4.226732161811
5	2807	3530.358316475237	0.568380606887
5	2827	3547.341718941155	5.639651050422
5	2838	3557.842649383883	0
5	2863	3586.499049982209	0
5	2891	3634.106845706251	0
5	2926	3670.191390958535	0
5	2946	3712.243894947122	0
5	2956	3731.30967444735	0
5	2983	3777.9451841327	0
5	2993	3787.120991090168	3.21426293169
5	3004	3788.763107040197	0
5	3043	3838.925465385436	0
5	3053	3848.219688414457	0
5	3076	3869.881032577747	0
5	3173	4039.735892329566	0
5	3178	4060.11033786438	0
5	3185	4062.839197135484	0.91511869267
5	3194	4067.626953349508	0
5	3208	4081.577451781158	0
5	3241	4127.03727320078	0
5	3246	4133.9219268439	0
5	3252	4141.215539017369	4.322835001378
5	3258	4158.509615979974	0
5	3263	4166.184827364247	0
5	3273	4189.184604464966	0
5	3288	4211.102193693392	0
5	3293	4215.454938246122	0
5	3328	4266.180286473868	0
5	3338	4291.853446407148	0
5	3348	4309.632128758538	5.177345445216
5	3350	4310.790283269736	5.935330146554
5	3368	4322.332199513286	13.733947106753
5	3381	4341.871437194736	23.917290342293
5	3383	4345.981208338593	22.833560546844
5	3401	4367.364771425094	44.007591069374
5	3403	4369.01106199955	31.797899923985
5	3416	4394.320446631432	0
5	3448	4421.180406136762	0
5	3453	4437.965030486391	0
5	3468	4446.554197259954	0
5	3480	4454.056111164529	4.83536077798
5	3498	4482.317972548993	0
5	3508	4490.488759225869	0
5	3523	4499.167384133862	0
5	3553	4574.627924905847	0
5	3568	4611.141574443641	0
5	3578	4623.496534958357	0
5	3599	4654.040157322784	0
5	3608	4660.13933395892	0
5	3624	4679.792480595313	0
5	3631	4685.988528693699	0
5	3643	4699.345404599216	0
5	3656	4718.776917873198	0
5	3674	4734.547558260837	0
5	3694	4785.418046591943	0
5	3701	4792.655688743402	3.649836920447
5	3741	4817.706061704607	0
5	3768	4868.378838521514	0
5	3773	4877.457055926951	0
5	3811	4941.453103698448	0
5	3823	4970.185441805124	0
5	3828	4982.985732997938	0
5	3833	4996.642098259149	0
5	3845	5004.154989885326	7.299823061988
5	3847	5005.982354544945	6.754195853426
5	3858	5016.742481186692	0
5	3865	5022.487744100244	1.991830926715
5	3873	5035.623352662053	0
5	3886	5075.948755569723	0
5	3904	5099.658876148572	0
5	3912	5115.875773536643	5.808247103225
5	3923	5128.850380919557	8.627088941297
5	3930	5135.867094686425	15.025503678922
5	3940	5140.826806519488	3.187335968473
5	3955	5148.318123207004	2.84574202037
5	3963	5154.47943649179	8.752109850947
5	3970	5158.563647309975	9.559362621269
5	3998	5205.236816648572	0
5	4016	5213.16725950815	4.600015686475
5	4053	5243.993263606576	0
5	4058	5247.119653847586	0
5	4062	5249.367463329977	0.194088771533
5	4088	5273.609811508579	0
5	4098	5290.66968625969	16.40804439046
5	4105	5300.83954121962	24.596390241896
5	4107	5308.995065563626	28.100090493885
5	4112	5317.050460036886	5.034788895328
5	4141	5357.153621912511	0
5	4166	5380.340807156188	0
5	4184	5392.100432755396	0
5	4196	5417.475352595124	0
5	4206	5424.877021413963	6.408132447077
5	4227	5439.022086195292	0
5	4232	5439.966416110181	0
5	4242	5445.688567917495	4.41447982325
5	4262	5455.706653630424	0
5	4281	5465.334603699601	0
5	4296	5497.051376508922	0
5	4301	5501.989720744326	0
5	4310	5507.462034057303	4.811905085507
5	4318	5512.930511695256	8.224701282471
5	4322	5523.972098570632	11.079536908616
5	4336	5538.731836939689	0
5	4350	5544.959666282653	1.826060352961
5	4368	5568.764025809586	0
5	4373	5570.984543822406	0
5	4378	5585.51381595456	0
5	4426	5639.556452162324	0
5	4436	5643.446840989606	0
5	4464	5673.490906562524	0
5	4483	5706.626794599296	0
5	4509	5743.70540428299	0
5	4514	5748.392813012365	0
5	4526	5768.665670463189	0
5	4533	5776.218794630847	0.888253703501
5	4557	5801.067818225457	0
5	4583	5836.444842850658	0
5	4592	5850.098089500543	0.926480125003
5	4608	5879.25403461978	0
5	4618	5885.665606027135	0
5	4622	5889.017424620343	1.09914425716
5	4633	5896.658049303764	0
5	4660	5926.051871964149	0
5	4688	5939.283077057102	0
5	4693	5957.695064936167	0
5	4711	5969.3887673096	0
5	4718	5970.912394350242	1.04520817611
5	4733	5989.833128832068	0
5	4738	6012.45153824827	0
5	4761	6037.997215709362	0
5	4768	6040.730423186894	0
5	4808	6078.608947812065	0
5	4844	6114.444240944225	0
5	4852	6119.14729670066	3.192522108242
5	4866	6145.279213822227	0
5	4903	6189.030380016799	0
5	4911	6209.837729839189	0
5	4928	6256.57839770814	0
5	4933	6266.475799160401	0
5	4937	6267.85114911826	0.971906814751
5	4943	6290.531309798509	0
5	4947	6296.222810214041	1.292546262018
5	4961	6320.91537053052	0
5	4968	6332.867032534465	0
5	4983	6345.634645144095	0
5	4988	6354.519368479078	0
6	8	14.16162687343	9.502577523702
6	13	18.264673171615	2.940903096072
6	15	19.1541297123	9.234907848387
6	20	21.699500280695	0.298345659066
6	25	25.939754978427	2.471206756287
6	36	51.419043942501	8.544999233661
6	44	56.461930655207	0.465832843495
6	46	60.659810882946	13.983907251445
6	51	63.315403168469	0.772789662228
6	53	64.359136269522	13.277078378688
6	55	65.595992615379	9.168540732774
6	66	100.632792020025	19.649083751315
6	68	104.43377225865	7.74949882709
6	73	106.437440012164	13.509732077462
6	81	110.512038750842	2.736740830364
6	83	110.895001318829	4.762359740848
6	91	121.659999013345	14.790488642514
6	93	123.700948917338	7.604982159591
6	95	124.146557889115	4.294110345678
6	103	129.671185126783	2.001948842558
6	105	133.358846876358	4.839153020364
6	113	136.644144395249	2.496526521964
6	115	142.495804453766	6.876245510115
6	123	157.318790799879	4.851917321668
6	131	162.078189867132	6.112110855226
6	133	163.035937064483	3.706545343514
6	135	165.616646084119	5.675152947462
6	140	181.137070643323	0.705326597869
6	145	186.597772673294	4.783274570432
6	156	194.260980033825	4.315026024926
6	173	209.776861682435	3.208781478865
6	175	210.576937374719	17.984377905265
6	177	210.661542983342	2.383623338026
6	182	212.684818659623	19.862880992527
6	190	214.634569019265	15.924262487924
6	195	215.40511957837	0.521960344592
6	197	217.504462556131	5.457848927434
6	199	220.185405555553	20.845003101066
6	201	222.48723343967	9.755962842048
6	206	229.484680233096	29.114479883687
6	211	243.215017340731	18.26103658268
6	216	246.856319502664	15.346945447489
6	218	248.642230991573	35.040398769749
6	220	253.386756110739	9.552831160726
6	225	265.959418828326	0.103171554827
6	233	271.066952679221	1.698616331325
6	235	273.343046129631	3.740688527048
6	246	298.346332822383	5.962723720664
6	248	298.685112543957	4.245718615
6	253	299.933973283655	3.254248000061
6	255	304.206431672023	4.395493252748
6	260	310.348390869895	3.63447695918
6	265	318.944987005489	0.504103076017
6	270	323.220683990144	0.443397164755
6	275	339.608222109023	1.959992694044
6	283	353.879173567745	0.722199946295
6	288	360.344600306484	1.034010741079
6	293	362.620959045137	9.408953429299
6	301	365.423147772161	4.112514712985
6	303	366.232272868999	1.833581154489
6	308	368.709892066921	1.608227686967
6	310	373.302719460751	9.022936880031
6	315	375.471276479443	1.739171832382
6	320	382.315113473795	1.461567169516
6	328	411.59391303927	11.567678572649
6	330	412.883779202944	4.597407844314
6	335	419.081106683181	5.823396693653
6	343	430.362853597921	0.63122116802
6	345	435.835791359266	9.57337998607
6	356	460.045363934468	5.750191106071
6	358	460.81810543344	8.58951246523
6	360	461.850460396118	4.448438072528
6	368	478.669343335192	6.601656363571
6	373	482.864938976499	3.893144311322
6	378	487.060044803263	17.191933015091
6	380	489.626852982376	4.345412905464
6	388	508.342510561521	4.764578718878
6	390	510.051306595763	3.245502626874
6	395	512.312079714906	1.735686783496
6	403	517.595289388102	4.91773653499
6	411	525.452188317391	10.769057261296
6	413	528.198236991136	4.566955590141
6	418	529.553228964617	6.774137633456
6	423	534.964766923915	6.393362404373
6	425	535.549422062878	1.978234770882
6	439	565.492129690375	11.592719702659
6	441	567.033131506946	9.828491645669
6	443	575.418118130152	17.321951386635
6	445	579.353210882433	20.658059259569
6	450	583.45383614081	0.535946179918
6	455	596.443146538897	6.400824452299
6	460	605.617355819205	0.8271561431
6	465	609.404623529246	0.906133688992
6	470	622.931886450586	0.675458756131
6	475	634.827021848204	8.41473460778
6	480	636.021335811652	0.770542062091
6	488	647.956819535792	6.542507781481
6	496	650.737008648213	2.324599526886
6	498	659.048147944465	20.694717346292
6	500	668.944057628045	20.227752426239
6	511	677.832642265772	7.398227758961
6	513	678.794829589142	6.824739306472
6	515	680.91349968213	6.331045388142
6	520	682.532582887237	0.28549597026
6	525	687.567307159414	1.010908783116
6	539	697.045519999585	8.065689009961
6	541	699.697792992331	10.608518718863
6	549	701.619639865343	0.91958201533
6	551	701.685216179214	6.471168382754
6	553	701.949315827829	1.059841243423
6	558	706.184597512742	13.450638387624
6	560	706.335689874728	1.388223839449
6	565	711.576358487804	1.589045483396
6	570	742.469533965587	3.919777034865
6	575	751.223017834567	7.101249795893
6	580	757.723772730425	1.910559994065
6	585	764.700723480564	1.220027180253
6	590	769.263435300659	1.052823767748
6	598	773.896993928071	4.307621542368
6	600	774.479876296092	3.445389750841
6	605	780.40997452073	1.499824101328
6	613	802.39608517398	2.912176558716
6	618	806.347076810978	2.424267243601
6	623	813.273589357036	13.26777152814
6	625	814.895842839847	3.995895933674
6	633	816.883960457337	0.355746299186
6	635	820.002285018543	3.327789040099
6	643	829.420292592142	4.773048299613
6	648	844.585242386261	3.111136189197
6	653	846.746773578868	1.561641048271
6	661	852.884120797981	1.330395713006
6	663	853.128917001912	24.942454257248
6	665	857.72116614727	5.30341388575
6	673	869.818989461738	9.086312451222
6	684	876.458909840761	10.530796540901
6	686	879.834080578279	7.424822597692
6	688	881.074372080942	7.463008262176
6	690	881.288300067854	11.067052409269
6	695	892.81657793568	1.331871061114
6	700	902.082685665366	1.496981952867
6	708	910.605591405063	0.132848477937
6	716	924.401883719954	16.132758216634
6	718	927.336411936478	5.310340802931
6	720	927.584541492853	12.837045813417
6	728	936.857584129938	5.74088315269
6	730	938.122172621611	8.421669244853
6	735	943.513597259328	0.723790797804
6	746	953.283671690767	6.229086653876
6	748	954.455110192575	6.275026680994
6	750	955.254701379239	4.122563138404
6	755	962.557140786566	0.681370584923
6	760	963.089129301248	0.158033349874
6	765	972.560389226177	7.056721418858
6	776	975.242323721928	1.252962253402
6	778	978.663512964916	4.105331907229
6	780	978.902087334939	3.833972630857
6	785	984.497761413007	1.727970592855
6	790	1002.443630210244	0.540061459675
6	798	1007.661439917576	4.144930623585
6	800	1013.044526883351	9.146846878899
6	805	1025.637935873171	6.212178318862
6	810	1028.765937023498	0.337730174643
6	818	1038.034960446824	4.43837088779
6	820	1048.489058539692	10.687854086105
6	825	1061.27060453129	1.259184851507
6	830	1066.817808527115	1.346879046588
6	835	1088.012221111467	3.463568230501
6	840	1105.10969004548	8.203894279277
6	848	1119.181238757357	1.771909382361
6	850	1119.81150662431	6.300019166087
6	855	1130.65338064678	1.104251666796
6	860	1142.625547817508	2.179597999507
6	865	1153.824679867665	7.747112231406
6	870	1161.010154143262	3.325574419455
6	875	1181.167844805392	0.020727801951
6	880	1191.696206167282	2.349533633834
6	885	1198.175376939989	2.856529193654
6	890	1199.488320003537	1.075825102723
6	895	1209.818204849194	1.297998143369
6	900	1214.184350999522	2.662712775743
6	911	1253.072771907536	18.441688535467
6	913	1254.180623610332	7.947554181412
6	915	1261.781389655008	13.083825459309
6	920	1264.409804947808	1.835991855194
6	925	1266.530139397233	1.350422071734
6	933	1283.558771809353	0.058730508566
6	935	1283.851503440726	15.610333470726
6	943	1296.013056050185	0.479698936614
6	948	1302.02793858984	10.957809723663
6	953	1303.466526344667	7.448093485431
6	958	1306.806267835672	4.16474367088
6	960	1308.389076368597	2.434805557075
6	965	1317.924093003331	1.610467746738
6	979	1328.494968245078	4.580242237655
6	981	1329.115091402294	3.134673747816
6	986	1332.096386872284	4.014609660029
6	988	1334.370146736479	8.723211163062
6	990	1336.073837795578	4.426597261859
6	998	1342.248912804376	3.638361215342
6	1000	1347.449938103295	5.513316502433
6	1008	1358.709577145621	7.677329375862
6	1010	1360.414026017253	2.39202397603
6	1018	1365.87313134401	0.732022939261
6	1020	1366.3451303968	1.627963462662
6	1028	1381.319951619079	3.147347540137
6	1030	1385.874986397793	6.417615704979
6	1035	1397.872958015004	3.239393166372
6	1040	1405.921809038446	1.872566101265
6	1045	1411.067625586552	2.735916234088
6	1050	1417.555569188804	5.300322430865
6	1055	1433.892234427772	2.876036781286
6	1060	1435.681629223283	0.890137269512
6	1068	1444.752495038602	0.704941015159
6	1070	1445.394993347448	5.844794387297
6	1075	1450.996789849701	0.812551405845
6	1080	1453.549767751338	1.058716281304
6	1088	1474.761489892389	3.119567337938
6	1090	1475.250469041023	4.419833739183
6	1095	1479.371875978917	3.135517511777
6	1103	1501.081822009034	10.7138113577
6	1111	1513.058995873515	13.258247699329
6	1116	1518.240163723903	5.165030423437
6	1118	1519.495762255402	16.714142723101
6	1123	1522.245645607985	0.894224696395
6	1134	1526.212970176612	20.178523366683
6	1139	1539.301213300694	16.343082931295
6	1147	1541.916384565045	18.900800484971
6	1149	1542.423717438863	17.856278343153
6	1151	1542.79294695092	2.712392939439
6	1156	1549.465336976363	8.784444183239
6	1158	1549.919270451728	4.218952567903
6	1160	1554.663086162643	25.997696993113
6	1168	1575.635859184484	0.330952690156
6	1173	1579.419022471824	5.130701498518
6	1175	1582.449669434156	4.169646255803
6	1183	1604.102227641067	9.661625979144
6	1188	1605.976090976955	9.783220964355
6	1190	1606.372929589032	2.243683396354
6	1195	1625.366267648571	2.540739453211
6	1206	1635.799005592288	9.538532802623
6	1208	1636.335211931136	9.978363077024
6	1210	1641.136067078897	11.776543614618
6	1215	1655.273334848334	10.40546329696
6	1220	1662.341618083632	0.462493172458
6	1228	1667.314733729142	4.87045617054
6	1230	1671.090615031031	7.095408347499
6	1238	1676.280721905788	1.48329715128
6	1240	1677.566989251649	2.86164278772
6	1248	1681.851310036005	0.71783091364
6	1253	1685.37504794897	4.434774155125
6	1258	1686.293599922846	3.451068496581
6	1263	1687.039175594848	1.433742982766
6	1271	1710.035637044219	23.711830779303
6	1276	1715.238728871923	7.491845965532
6	1278	1717.121045209845	9.100576188695
6	1283	1720.459709627186	10.266459892467
6	1285	1720.804809168828	0.980655652016
6	1299	1754.718472395004	8.271358049404
6	1301	1757.387175452927	5.135209209295
6	1306	1760.320016381762	11.677289421145
6	1308	1770.150320477877	19.515844833643
6	1310	1772.970029319448	14.359428892301
6	1315	1776.775612338689	2.853049893143
6	1326	1784.801932911872	6.848810165716
6	1331	1785.929186737834	0.240677275093
6	1333	1787.10776317216	7.173962247142
6	1335	1792.08543904702	9.014486574084
6	1340	1803.89579008352	3.046438365038
6	1351	1813.671306524422	2.457287726188
6	1353	1817.327220738916	8.621685455551
6	1355	1824.980384095461	12.025540664854
6	1363	1847.91928611431	1.324063627559
6	1371	1857.964811200084	24.679870467123
6	1373	1859.323133765588	11.109439996192
6	1375	1861.588572529155	12.719555415903
6	1380	1866.825897344883	0.307255966254
6	1385	1878.466569644621	5.096197502492
6	1393	1890.356252355066	2.43499584517
6	1395	1891.787092007415	2.003944189971
6	1400	1893.915127891793	1.387650095494
6	1405	1904.196881802386	3.582342552656
6	1413	1921.00189272607	11.09496425372
6	1415	1922.389104254524	8.989972568776
6	1420	1928.239090439648	4.141619982101
6	1425	1937.083250117509	5.136140964205
6	1430	1952.421258620067	3.746781480648
6	1435	1953.45709047505	0.127382569169
6	1452	1983.148653197789	6.288973328768
6	1454	1984.668779988113	3.031919203812
6	1456	1985.910110982535	8.222715831576
6	1458	1987.403133256256	17.583224083162
6	1466	1991.450780762117	2.465959349471
6	1468	1991.996026209392	10.789471758501
6	1479	2008.477391397184	20.316492124417
6	1481	2009.298721904484	1.559998671672
6	1483	2011.965399314345	17.556035535561
6	1485	2016.549340216425	8.924707304553
6	1490	2031.756540086966	1.240429184908
6	1498	2036.372552285795	4.104028904518
6	1500	2038.001830043185	2.676867085886
6	1505	2059.723312693083	2.624933483779
6	1519	2067.319998713453	2.385676795608
6	1521	2071.845445929835	11.189094711392
6	1523	2071.982805895532	11.17525730502
6	1525	2079.078946764993	11.969186218386
6	1533	2086.990961836853	0.943387110552
6	1535	2093.47512190632	13.179268098316
6	1543	2109.057713081403	3.019167976267
6	1545	2110.001600459668	3.670849417929
6	1556	2126.096942372679	6.88546348906
6	1561	2132.431799564629	10.712226898468
6	1563	2134.780459566487	5.776636283386
6	1565	2139.376864324909	14.794051022978
6	1573	2146.154047854934	1.626988312045
6	1575	2147.842406786992	5.762855815559
6	1580	2150.878096911704	1.697851786487
6	1585	2158.92398922085	5.150949191875
6	1590	2165.17052967025	0.040447420646
6	1595	2172.51029965538	0.126897691584
6	1606	2183.989284059639	3.569748941064
6	1611	2186.82159595878	3.778953873335
6	1619	2189.036092786039	13.043154882028
6	1621	2190.784605460197	2.237691940211
6	1623	2191.065726258429	4.974444698031
6	1625	2192.99520577653	4.398252155396
6	1630	2201.165622427253	5.695662225325
6	1635	2204.942814539538	2.516375433287
6	1646	2215.289573781237	5.323825215235
6	1651	2224.827469741715	6.092733606259
6	1653	2228.267738428814	18.286143819028
6	1655	2230.348504576128	16.815215522626
6	1663	2238.629050106698	2.07676974908
6	1665	2239.055531552454	5.904475863896
6	1676	2243.880288289468	2.981481480479
6	1678	2253.602558811991	12.876631225556
6	1680	2256.070959765976	14.573278330957
6	1685	2272.324246564629	3.158247647185
6	1693	2280.055573478799	3.95827619278
6	1698	2291.195477963765	13.585160235753
6	1700	2291.927478840108	8.601947609638
6	1708	2299.762720140845	4.01995072
6	1710	2303.332584367941	4.556109124297
6	1718	2314.792671001018	3.991772516836
6	1723	2319.886075565682	1.729434188697
6	1728	2326.715379050878	13.122135732668
6	1730	2337.7322778792	12.892619227523
6	1735	2345.616899974942	0.575028025995
6	1743	2348.282921501506	2.518610506355
6	1748	2349.439735966466	0.89379142909
6	1753	2351.116473967539	4.227635469614
6	1755	2355.290116559765	4.655955079239
6	1763	2359.981190783973	0.805704189957
6	1768	2367.23149471095	2.965279794594
6	1770	2367.899384491201	12.185384403909
6	1775	2372.891802104911	2.290962756786
6	1780	2377.803224569088	1.45236288943
6	1785	2387.055530651065	3.725224346257
6	1805	2404.353582145358	3.78268869813
6	1807	2406.651617455563	4.864828970851
6	1809	2407.846731398911	12.177478876009
6	1811	2411.097220050722	15.059028285137
6	1813	2411.299523757463	7.387457230929
6	1815	2416.448372476284	19.21722108325
6	1823	2460.053898894886	19.870974533354
6	1828	2465.625053841702	22.66025342552
6	1836	2469.363712512799	5.828080067064
6	1841	2474.349581298839	1.707123674434
6	1846	2479.14680526332	13.284330283714
6	1851	2484.657327513936	2.344219156523
6	1856	2490.456396416463	23.284972549365
6	1858	2491.125286480896	4.582064624952
6	1860	2492.560186369393	16.116078350334
6	1868	2505.792709395095	0.520277930503
6	1873	2506.554263140287	4.590836092492
6	1875	2511.509273976108	5.398413480265
6	1883	2517.875478637749	5.500355247624
6	1885	2518.071134394366	0.461915135157
6	1890	2522.842853510699	2.216204293747
6	1898	2568.668343163935	5.6969696243
6	1900	2570.694009506366	4.242631904978
6	1905	2583.658785222037	7.390631693716
6	1913	2590.802371168242	1.623801334461
6	1915	2591.618948046261	1.73521551296
6	1920	2593.691540452613	1.415174771426
6	1928	2602.303685972928	1.54299006783
6	1936	2609.203949064593	7.579016115059
6	1941	2609.68101905528	0.275617847296
6	1943	2616.194705113821	10.248719673408
6	1945	2621.187756035851	14.084248825911
6	1953	2646.902536767212	20.950664235543
6	1955	2654.661403115521	12.632972135558
6	1960	2655.8637705136	0.817314930235
6	1965	2658.918917352467	1.070874522059
6	1976	2673.068590279216	0.48323602352
6	1978	2676.4481718032	10.122681563191
6	1983	2677.514698621191	4.876825864042
6	1985	2677.615733470979	0.946147433311
6	1990	2691.085524363082	11.594432032647
6	2001	2707.325272645161	3.275077812532
6	2003	2707.524250377385	3.12095383356
6	2005	2707.940300062796	2.816314915889
6	2010	2709.487477103801	0.206740153426
6	2018	2711.514191529353	1.616943968969
6	2020	2711.99837372289	1.370620006617
6	2031	2719.902798184472	5.686734077336
6	2036	2727.134359569492	9.929754842829
6	2038	2727.247896881308	9.269325449248
6	2040	2727.904804578786	2.60317968723
6	2051	2736.806095564686	5.536931242179
6	2056	2741.624943279361	6.621935642308
6	2061	2743.567351529501	2.3611823949
6	2066	2746.840708579633	2.656290138337
6	2068	2747.114306082983	12.536392850081
6	2073	2747.379514594883	0.155384848136
6	2075	2748.801151289597	5.302060858527
6	2080	2752.098207978308	2.607424258332
6	2100	2759.081300831754	4.76347424429
6	2105	2761.402710350539	6.404112345822
6	2107	2763.645255195224	7.949043310293
6	2109	2766.766281427877	11.246174228009
6	2111	2766.864945845411	7.32511428345
6	2113	2770.479475709357	14.144991294785
6	2115	2780.117523905313	23.609616190796
6	2123	2797.313024402307	9.453955913541
6	2137	2802.351003127265	1.27879426286
6	2139	2802.44103402447	10.307831229128
6	2144	2803.534107919261	3.937924720692
6	2149	2806.125611811054	4.531395431051
6	2154	2813.360676785821	9.912693591509
6	2159	2816.475524199934	9.930296993421
6	2161	2818.49864207438	16.853332589397
6	2163	2818.538701555288	3.301372759298
6	2165	2819.636326608279	15.791115103875
6	2170	2832.398395406357	3.839001829455
6	2175	2836.238386401867	0.373094099034
6	2180	2840.47923521331	2.511796783229
6	2185	2847.020777523981	0.150131530614
6	2190	2862.722889250701	0.513583226276
6	2201	2875.498683884195	10.765707763247
6	2203	2876.415805938062	2.316942567679
6	2205	2880.437318018749	12.786027290778
6	2213	2887.689855512362	5.254129176446
6	2218	2889.485831385604	0.722820256497
6	2220	2890.009751805254	4.011167770709
6	2228	2897.986403512895	0.524180018074
6	2230	2899.301900315361	5.850369756787
6	2235	2904.259321253777	2.572507449971
6	2249	2910.835514988114	4.798385064005
6	2251	2911.906036776492	4.849320232026
6	2253	2914.133446041992	5.92512658629
6	2255	2918.403963888344	9.10416827409
6	2260	2923.839166594392	2.034091735487
6	2265	2929.121731041498	1.825556673823
6	2270	2934.186083397288	2.742138843987
6	2275	2945.799029432158	3.758695017761
6	2280	2964.221383820192	6.544869210879
6	2285	2976.201720744209	2.376588150553
6	2290	2986.615459120545	0.503843446016
6	2298	2991.318249217323	1.957477822803
6	2303	2996.299935663505	5.273114791906
6	2305	2999.304839541175	3.26602198413
6	2313	3008.726609661976	2.647128481875
6	2315	3010.493272128547	10.86350521241
6	2320	3015.14728683593	0.343887502411
6	2325	3023.325262540493	5.754129796238
6	2333	3029.225835644166	0.927869802247
6	2338	3030.715303810237	3.955508138105
6	2340	3036.256951091058	6.531020961771
6	2348	3040.845633088735	3.083776629314
6	2350	3040.976446639197	1.175942675283
6	2358	3050.564778419802	9.501567585059
6	2369	3067.894297681974	0.552115401719
6	2371	3069.412870214529	19.534406788192
6	2379	3078.766960916499	1.44996302398
6	2384	3078.894340049146	0.581827958833
6	2386	3081.78467317557	3.013501349659
6	2388	3088.350482371242	35.100565861719
6	2390	3089.797132717383	33.288278812243
6	2401	3105.065785105959	13.991299038847
6	2409	3116.882858575501	1.29898582645
6	2414	3117.4157931202	0.208562096793
6	2416	3118.845078209491	25.814212183198
6	2418	3118.883384529623	25.120618940405
6	2426	3129.268065083759	13.699884908608
6	2428	3133.290339885651	6.240741703987
6	2433	3137.737351084375	16.663705883845
6	2435	3137.902991094131	3.937445709113
6	2440	3143.95691834618	4.684714484318
6	2445	3159.72568953975	2.385716826833
6	2453	3173.720554076981	0.454300589219
6	2455	3175.64399731594	4.966799368628
6	2460	3177.273436177398	0.433704728675
6	2468	3191.326529512493	2.341783017212
6	2470	3196.174345812411	5.79161401011
6	2475	3198.390315554335	0.002790672991
6	2480	3202.643024629778	0.340352251301
6	2488	3204.236148351355	0.472100220839
6	2490	3204.572910882345	1.193255037855
6	2498	3212.674299691514	6.403229060334
6	2500	3213.560054424987	5.868926568548
6	2505	3217.826184671866	0.628099677451
6	2513	3229.498028223483	9.848525980963
6	2524	3232.541059779672	0.426419369739
6	2529	3234.231153902003	1.77095741665
6	2531	3234.561002718815	8.538741399239
6	2533	3234.728639103452	2.766752764411
6	2535	3237.495563546073	4.739106603377
6	2546	3249.769131591684	4.541277581097
6	2551	3249.893298004416	8.900669649673
6	2553	3253.251616045412	8.687633278539
6	2555	3256.646623446996	6.797173450227
6	2560	3265.173560442522	2.799609026214
6	2568	3271.08845151817	3.704358759534
6	2573	3272.735040716617	0.026399721993
6	2581	3286.422275024491	5.888820309017
6	2583	3288.561791243476	18.440227136512
6	2591	3298.118990725805	0.698071273021
6	2593	3299.623036111184	18.092192337961
6	2598	3301.895547416005	5.615022852254
6	2600	3302.686662055744	1.397916446093
6	2605	3308.674548329137	1.698829319294
6	2610	3322.582368829474	0.574030218131
6	2618	3335.797508694052	1.494818452638
6	2626	3345.809768178117	16.874159997035
6	2631	3348.192419904783	1.048586401659
6	2633	3348.506272384648	7.308420869596
6	2635	3350.026810863402	10.567287430455
6	2640	3365.086120888984	4.523458076169
6	2645	3369.731786784834	1.944819495487
6	2659	3378.23184454708	8.13298459783
6	2661	3378.472555376646	7.037539695192
6	2663	3384.0695092581	6.723810724425
6	2665	3385.117032892431	10.359681465226
6	2673	3395.534308273317	3.759903901032
6	2681	3400.724353547311	7.718168623496
6	2686	3403.948426520814	5.895732830803
6	2688	3407.20491405779	7.529471438699
6	2690	3417.980204890224	15.832012478328
6	2701	3424.541250022541	2.974945181529
6	2706	3428.051797722026	5.592312109803
6	2714	3433.011899693518	10.28143531365
6	2716	3433.025623669889	3.080363739903
6	2718	3438.061339311195	13.027428979475
6	2726	3445.421740412781	14.955975805627
6	2728	3448.602194317191	3.331512410063
6	2730	3453.481619662678	11.215259619292
6	2735	3455.331328979346	0.31283129815
6	2740	3457.517003401078	1.107797031565
6	2745	3462.079560623876	0.653926418267
6	2750	3481.607566451858	5.501725695637
6	2755	3492.912698871814	0.629467032391
6	2766	3494.931297648162	0.467251491491
6	2771	3497.270006364716	1.869416027998
6	2776	3500.45980805813	7.04779044227
6	2778	3501.487108632106	6.680258977354
6	2786	3508.723857317442	8.430039700352
6	2791	3514.280586341517	0.268408321728
6	2793	3517.563496221471	14.816438120286
6	2801	3523.750718872691	4.870103007766
6	2803	3529.389440953383	21.646633775066
6	2808	3530.358316475237	10.834329764357
6	2813	3532.676806910724	1.249174721172
6	2824	3545.394582764633	5.283769754207
6	2826	3546.44801050391	4.489111956445
6	2828	3547.341718941155	17.551783072805
6	2833	3550.640120571095	8.938052680362
6	2835	3551.37876165369	1.809393768493
6	2849	3577.269958485551	1.318100121664
6	2851	3577.280735515526	3.675606506323
6	2853	3578.690094154711	1.852704459538
6	2858	3581.908379690255	2.569882449231
6	2860	3583.198636710301	25.355987326418
6	2865	3590.079479007638	3.580429025429
6	2870	3611.257240848453	2.542071584633
6	2875	3617.392811359806	1.254349053739
6	2886	3627.759711886135	1.756181217311
6	2888	3630.729681205039	3.689030074711
6	2896	3637.449008310719	3.342162604468
6	2898	3642.521955168686	18.766779480579
6	2903	3643.752413665674	7.164102199163
6	2908	3654.243365656514	11.253591756192
6	2910	3654.879834126711	0.641868885147
6	2915	3658.848638482103	0.604084756632
6	2923	3669.858106035215	1.94450681858
6	2928	3673.64422979207	3.452838833535
6	2930	3673.789966670327	9.836422130445
6	2935	3691.51081555001	1.679463114691
6	2940	3704.275074289817	6.782620389415
6	2948	3715.850798642135	3.606903695013
6	2950	3727.796118609322	17.931831152724
6	2958	3731.848831109517	3.216529875805
6	2960	3733.061585446497	1.751910999147
6	2965	3735.840754186542	0.04972288531
6	2970	3752.701584519553	6.577296160692
6	2975	3760.268840347119	4.566765566807
6	2980	3766.453418005509	3.464506015948
6	2994	3787.120991090168	9.175806957468
6	2999	3787.442586292486	3.535858134008
6	3001	3788.103646120586	7.537343587454
6	3006	3790.101413948073	1.338306907876
6	3008	3791.716253438901	4.670615221352
6	3010	3792.241469622524	5.005104258889
6	3015	3795.936879375415	0.212382427057
6	3020	3797.786984917339	1.326599842151
6	3034	3824.439984118005	11.662811387078
6	3036	3826.529031736466	3.300712282757
6	3038	3826.75883695963	3.471306194814
6	3040	3828.472653885028	10.505019558111
6	3045	3839.931054447312	1.005589061876
6	3050	3844.081169953575	0.159130169928
6	3058	3850.441043332511	0.580996925226
6	3063	3859.437039835681	8.097743961917
6	3068	3863.918061366004	15.698372951547
6	3073	3869.332479927342	6.127787806859
6	3078	3872.767849182946	5.991629893361
6	3080	3874.420164339773	4.539131762026
6	3085	3907.71085988892	1.374439399827
6	3093	3917.235280306152	9.35831592833
6	3101	3932.396427137538	16.540616876002
6	3103	3938.073500937449	16.243083730746
6	3108	3939.681744280704	1.351413911396
6	3110	3941.518500590017	18.846211712364
6	3115	3951.271713320961	0.707846613186
6	3120	3984.110721414041	1.488484150147
6	3128	3990.431584920399	5.284615030104
6	3130	3993.48861797086	7.92881015824
6	3138	4008.389758610516	0.695760089932
6	3143	4009.728796382717	0.230023997034
6	3145	4018.155458705376	12.983198963952
6	3156	4026.695419292987	1.585738341145
6	3158	4026.939152038955	5.035344149653
6	3166	4029.812619630535	7.013511303324
6	3168	4031.797907936111	3.295826530586
6	3170	4031.863642176882	4.664401470234
6	3175	4041.313583203752	1.577690874186
6	3186	4062.839197135484	2.728859271104
6	3188	4063.983535443359	2.059457000545
6	3196	4069.061337588913	8.869265776969
6	3198	4072.416434012002	6.967028215819
6	3200	4074.043932233302	6.416978883794
6	3205	4078.128073854148	1.330772105088
6	3213	4085.196934566175	0.444392057965
6	3215	4085.658445104691	4.080993323533
6	3223	4090.152847845639	0.842673522859
6	3225	4100.962113183528	12.019005572715
6	3233	4121.330948067334	12.308726504964
6	3235	4122.997731942679	13.795945512059
6	3243	4127.626470630699	0.589197429919
6	3251	4137.3979486335	11.561430207367
6	3253	4141.215539017369	7.293612173469
6	3255	4146.428556930911	9.53585291492
6	3260	4159.604387090408	1.094771110434
6	3265	4167.611621319874	1.426793955627
6	3270	4179.242920140449	10.087991787536
6	3281	4200.182681336429	10.998076871463
6	3283	4201.861434944489	6.166896298792
6	3285	4203.342586000358	7.391326789897
6	3290	4213.336816397711	2.234622704319
6	3295	4222.64007611833	7.185137872208
6	3303	4225.042495239141	0.538407446042
6	3311	4232.313484915285	7.434486367404
6	3313	4242.937403493295	17.439986772308
6	3315	4247.045550014471	17.178447351368
6	3320	4249.67518773826	1.582225783687
6	3325	4252.251508348583	1.579591396948
6	3333	4275.042508063049	7.816702791082
6	3335	4276.881993130827	10.701706656959
6	3349	4309.632128758538	17.77868235139
6	3351	4310.790283269736	6.335499956414
6	3356	4314.23696313131	2.262656501649
6	3364	4320.436206990268	5.23674458155
6	3369	4322.332199513286	17.477246390104
6	3377	4325.135372549784	3.772585908779
6	3382	4341.871437194736	33.273184788203
6	3384	4345.981208338593	28.02706148615
6	3395	4363.898498730025	16.763969115165
6	3400	4366.204752032328	7.893470049324
6	3402	4367.364771425094	44.217123633345
6	3404	4369.01106199955	45.65388164383
6	3406	4369.711079834394	32.497917758829
6	3408	4370.929626252348	5.137466887005
6	3413	4391.699980615305	31.74134946334
6	3424	4397.713421136731	6.083724791468
6	3426	4399.398180573598	2.728568552655
6	3434	4407.076280612451	11.457512497825
6	3436	4409.120061088959	6.495822948291
6	3438	4410.296190402517	15.975743771085
6	3440	4411.757254037246	7.395860212556
6	3445	4412.58003126394	0.584965867193
6	3450	4422.458030236015	1.277624099253
6	3455	4438.988323086023	1.023292599632
6	3460	4443.637371751088	1.65493332457
6	3465	4446.21696514953	1.27309975432
6	3479	4452.305269007346	2.068077631637
6	3481	4454.056111164529	7.501913904575
6	3483	4454.211069571314	5.135990598674
6	3488	4462.286873597433	13.066123210884
6	3493	4478.794326637083	22.498892537608
6	3495	4479.355428383422	7.30150060824
6	3503	4482.635979179027	0.318006630034
6	3505	4482.996201948092	0.647032174019
6	3510	4491.047509690043	0.558750464174
6	3518	4494.180570798143	0.442080287732
6	3520	4497.102830407308	3.163225684992
6	3525	4501.473717566431	2.306333432569
6	3530	4513.387432963971	3.403574274788
6	3538	4531.90183829924	6.873881273133
6	3540	4545.644771374049	14.999520963715
6	3548	4558.432879103009	0.744322590641
6	3550	4559.420535225402	4.621258104857
6	3555	4576.300705715922	1.672780810075
6	3560	4587.785377131381	5.583323949385
6	3565	4605.119869397322	7.723477602599
6	3573	4613.482138630284	2.340564186643
6	3575	4617.798272862868	5.357795231479
6	3580	4629.982828290578	6.486293332221
6	3585	4642.423388446932	8.654496119026
6	3590	4651.287580455006	5.714911307966
6	3601	4654.503583471004	2.357138055405
6	3603	4656.230132779028	2.190330043532
6	3605	4658.441709051138	4.401551728354
6	3610	4660.931048312085	0.791714353165
6	3621	4679.337975677456	4.963115420884
6	3626	4681.949081423669	2.156600828356
6	3628	4683.499743904838	14.566066292218
6	3633	4686.657067876452	14.740599083664
6	3638	4694.617359639341	8.628830945642
6	3640	4695.972176064757	5.324134007363
6	3645	4699.509352922126	0.16394832291
6	3650	4717.219832804403	8.421232150286
6	3658	4719.273756547348	0.551979880148
6	3660	4722.344032144346	3.567114271148
6	3671	4730.145871366667	4.285341577804
6	3676	4735.640054608866	11.087534618257
6	3678	4735.643589653463	10.723291925545
6	3683	4752.842765653815	0.645195399042
6	3685	4755.147218970475	20.599660709638
6	3702	4792.655688743402	7.237642151459
6	3704	4793.706150466386	4.700298643431
6	3709	4802.55671745996	21.584574175021
6	3714	4803.137844601006	0.023841732398
6	3716	4803.322275145294	19.546086103055
6	3721	4808.215551302884	2.510539501031
6	3723	4808.327469460358	18.739227517617
6	3728	4810.952186395931	16.473343102058
6	3730	4813.204367013532	4.261325043245
6	3738	4815.357159883551	1.665305728859
6	3743	4818.543934633685	0.837872929078
6	3745	4820.66843608462	6.597594000951
6	3753	4839.453554611584	2.106594300989
6	3755	4843.757774644455	5.097572157233
6	3760	4862.052316734059	18.228007711591
6	3765	4867.148937163694	0.302451690585
6	3770	4871.681276279126	3.302437757612
6	3778	4881.051925785118	0.646943274746
6	3780	4884.534921303093	7.077865376142
6	3788	4897.977545258723	12.233190796382
6	3790	4901.083935125506	6.046886844115
6	3795	4904.746097428622	0.803105088274
6	3803	4911.052712298744	3.542200856979
6	3805	4913.007015208911	7.254249687664
6	3813	4941.954932915125	5.491780311575
6	3815	4951.558343006596	10.105239308148
6	3820	4965.595617833154	1.446786761978
6	3825	4975.386375721109	5.200933915985
6	3830	4996.027734944726	13.042001946788
6	3841	4998.459476861649	1.001198947525
6	3846	5004.154989885326	7.512891626177
6	3848	5005.982354544945	9.127187721607
6	3853	5008.61887253867	1.321462708375
6	3855	5008.95296632538	9.724807633861
6	3866	5022.487744100244	5.745262913552
6	3868	5023.174828864037	2.678915690508
6	3870	5024.079609329604	1.765820474607
6	3875	5036.39254727214	0.769194610087
6	3880	5061.858572872393	2.38625572186
6	3888	5077.69811903677	2.056127109646
6	3890	5078.509584997802	2.560829428079
6	3895	5089.197072893026	9.531809495742
6	3906	5107.128103303559	10.288189147311
6	3908	5107.972809533096	8.460757380342
6	3913	5115.875773536643	16.216897388071
6	3924	5128.850380919557	18.782854486139
6	3929	5135.778182959564	8.109440856378
6	3931	5135.867094686425	15.643802708165
6	3939	5139.423611574086	8.408984431697
6	3941	5140.826806519488	19.985215511985
6	3943	5145.368772560864	6.025875112346
6	3954	5147.32568990392	1.27504049401
6	3956	5148.318123207004	10.678652655989
6	3964	5154.47943649179	9.007055305156
6	3966	5157.597023291068	7.61662768853
6	3971	5158.563647309975	12.836320669132
6	3973	5160.853016618196	11.84873192949
6	3975	5163.206146398023	4.874502703441
6	3989	5201.461052796797	10.275807700394
6	4000	5206.862485827012	5.524799649214
6	4011	5209.653021432372	21.140388923442
6	4013	5211.003991669317	22.269864513043
6	4015	5211.034376157559	6.45867287611
6	4017	5213.16725950815	7.930442859578
6	4022	5214.848337650296	9.87843379553
6	4024	5217.000638874912	8.433395053237
6	4029	5218.474082557157	9.408653500343
6	4034	5219.99934522771	6.719794113006
6	4036	5220.448684622221	3.128594000065
6	4041	5228.290249039199	20.760774165515
6	4043	5232.01027771866	12.837387166187
6	4048	5239.77525229329	19.322551622549
6	4050	5243.391734408274	5.485724494665
6	4055	5244.069357922246	0.07609431567
6	4063	5249.367463329977	2.247809482391
6	4065	5251.797083870439	2.623709311995
6	4070	5257.824583590497	0.399915487675
6	4075	5264.840973348315	2.371450458638
6	4083	5266.81562161461	0.638683391479
6	4085	5273.068624524731	6.290108752069
6	4099	5290.66968625969	17.059874751111
6	4104	5295.277741698894	1.664409819508
6	4106	5300.83954121962	26.57789935039
6	4108	5308.995065563626	32.751914585902
6	4113	5317.050460036886	36.155484967145
6	4118	5321.35965497553	9.343983833972
6	4123	5326.191855257213	0.191019358953
6	4125	5328.538798023006	7.619626859718
6	4130	5336.791289240203	7.214118648265
6	4135	5337.61315989075	0.070168450354
6	4149	5361.904221679374	2.873733270623
6	4151	5363.337369064083	6.183747151572
6	4153	5364.90812894395	5.643408986188
6	4155	5365.631769716134	12.727718546784
6	4160	5374.610063766301	3.250473269323
6	4168	5381.094345576032	5.299948321197
6	4170	5384.334935064431	3.994127908243
6	4178	5386.868412708913	1.958567981399
6	4186	5394.054140146039	8.520306903116
6	4188	5399.476040043385	7.375607287989
6	4190	5401.710961956476	11.851250788097
6	4207	5424.877021413963	7.401668818839
6	4212	5428.289317006199	9.820428039313
6	4214	5430.547207472112	9.671724128159
6	4216	5433.440658426228	21.591113866746
6	4221	5435.537007590524	0.795596827552
6	4229	5439.691278289013	0.669192093721
6	4243	5445.688567917495	5.722151807314
6	4245	5445.868869681178	21.700323310847
6	4247	5446.18547681886	20.701371183224
6	4249	5449.528500303392	8.254412209147
6	4251	5450.569797821385	11.697064720581
6	4256	5454.563030003185	0.725189705675
6	4264	5455.966072237753	0.259418607329
6	4266	5456.005754345229	0.789029344696
6	4268	5456.729931198297	13.339186275689
6	4270	5457.942898230794	12.736398469877
6	4278	5464.920131208168	1.813494322599
6	4283	5472.537850016177	10.060069281369
6	4285	5472.633114401222	7.298510701621
6	4290	5484.797854534005	0.344084283899
6	4298	5497.890185256117	0.838808747195
6	4309	5507.329330933154	14.74761377472
6	4311	5507.462034057303	5.472313312977
6	4319	5512.930511695256	10.28038272346
6	4321	5520.909084699185	12.222277499792
6	4323	5523.972098570632	19.266288157847
6	4325	5525.533907088482	12.641345426466
6	4330	5532.345806600093	3.437634578267
6	4344	5543.541381082563	7.546435119446
6	4346	5543.580543216563	1.887397446945
6	4351	5544.959666282653	6.227829342964
6	4353	5549.840892599746	6.707286670054
6	4355	5550.467124938999	6.690740696933
6	4363	5561.855536119923	4.118160110289
6	4365	5565.231205236981	7.037939517528
6	4370	5568.996463655057	0.232437845471
6	4375	5571.321564885117	0.337021062711
6	4389	5600.758013770271	15.244197815711
6	4391	5605.17054339345	14.181280357151
6	4396	5616.5105344309	21.001555795116
6	4404	5623.999449187433	27.864745876272
6	4409	5624.985949107763	5.289617411347
6	4411	5625.117093559186	15.376946778719
6	4413	5632.048964869644	7.984300325793
6	4418	5634.577437973151	12.769011687393
6	4420	5637.566594367986	4.48851347828
6	4428	5640.53651871283	1.981815926707
6	4433	5643.251627625066	3.695175462742
6	4438	5645.816433722984	3.339895784323
6	4443	5650.950238156489	0.19820295636
6	4448	5652.515879089276	9.06903809967
6	4450	5655.235088315041	3.17765549286
6	4458	5668.307211301812	2.396929556821
6	4466	5676.485555853557	17.015375966556
6	4468	5678.971593611144	5.48068704862
6	4476	5689.789954871495	17.96573835594
6	4478	5689.960720202506	7.281719482299
6	4480	5690.88964866508	10.818212854031
6	4488	5707.947398880314	1.320604281018
6	4490	5709.579377846008	2.166156548693
6	4495	5715.733830525117	1.281601280695
6	4503	5743.226611141758	18.155542039263
6	4511	5748.244823665621	4.539419382631
6	4516	5748.848928309337	20.876043664719
6	4518	5751.634366247629	8.125970673712
6	4520	5753.442007920377	5.049194908012
6	4534	5776.218794630847	7.553124167658
6	4536	5776.518080221956	9.143949827102
6	4538	5778.168982430034	2.838441502688
6	4543	5780.374923252581	6.326565472765
6	4545	5785.221226500848	6.425577970694
6	4559	5801.170991929621	10.877225185187
6	4564	5802.704352660221	1.636534434764
6	4566	5813.377096286572	16.943413376841
6	4571	5819.498063478729	2.857911812409
6	4573	5820.94585753584	23.952867770655
6	4578	5828.093297430668	26.278968784118
6	4580	5828.660698401961	7.237320487201
6	4588	5844.673899265688	7.696515179038
6	4593	5850.098089500543	13.653246649885
6	4598	5856.558597984935	7.386988609395
6	4603	5865.233796659074	12.109325210239
6	4605	5868.474055239442	5.201484280992
6	4613	5882.195565523152	0.761425351503
6	4615	5882.780045211017	3.526010591237
6	4623	5889.017424620343	3.351818593208
6	4628	5893.682364396684	2.190817836977
6	4630	5896.55879622337	8.640515860187
6	4638	5905.008466666007	8.350417362243
6	4643	5910.543433338682	0.696959793443
6	4645	5912.75917355502	9.60337842426
6	4662	5926.375038016581	1.168277519042
6	4664	5928.110116239709	7.346604728504
6	4666	5931.617243059472	9.29544000669
6	4668	5931.838925242582	9.156410998926
6	4670	5932.014384477835	5.962512513686
6	4681	5936.086740425874	4.044933979938
6	4683	5937.415069937173	5.254153012615
6	4685	5937.817904334332	1.886204979366
6	4690	5944.886856200422	5.60377914332
6	4698	5962.262694588166	4.567629651999
6	4700	5963.368600574906	2.329842735751
6	4705	5967.320405802193	2.038467087091
6	4719	5970.912394350242	1.523627040642
6	4721	5971.565261797056	4.04600624948
6	4723	5978.398487483665	8.531301309533
6	4728	5978.523930110982	8.890853613819
6	4730	5980.401490323687	1.936188498857
6	4735	6001.539657070948	11.70652823888
6	4740	6012.60234497884	0.15080673057
6	4745	6022.163410972134	0.178175082027
6	4756	6031.95907583864	4.78067047737
6	4758	6032.748003838222	3.470234021581
6	4763	6038.528571710373	0.531356001011
6	4765	6038.89514602649	8.791521977752
6	4770	6042.335800712426	1.605377525532
6	4784	6052.525994594613	2.285597655928
6	4786	6052.825787709213	6.391471077566
6	4791	6056.385867203304	6.423501209234
6	4793	6059.17811164482	8.009809724008
6	4801	6072.923185661741	0.575404931803
6	4803	6078.150006376657	23.876782326083
6	4805	6078.449900909155	7.400301914307
6	4813	6086.263680206252	7.654732394187
6	4815	6087.530027612792	2.760113779562
6	4823	6094.614166895201	3.091125648957
6	4828	6097.004513591406	4.552475900991
6	4830	6097.365977789235	1.99028753682
6	4835	6098.509878226265	0.281129752693
6	4846	6114.629315123544	0.910838418997
6	4848	6114.84526812948	1.097864968767
6	4853	6119.14729670066	4.703055756435
6	4855	6120.455132042302	4.500357449884
6	4863	6144.853241465719	23.086632175495
6	4871	6147.325447423635	2.046233601408
6	4876	6154.392000135957	19.698064686339
6	4878	6154.615329718294	9.173473431527
6	4880	6155.868642325547	8.275480227299
6	4888	6161.43309072489	1.634367323698
6	4893	6165.412373972302	5.611499708085
6	4895	6165.654837155625	0.548453288666
6	4900	6179.331404456339	8.270835000595
6	4905	6189.212378424374	0.181998407575
6	4913	6210.448315320638	3.750422662314
6	4915	6213.003065263905	3.165335424716
6	4923	6236.716512968945	0.41494355067
6	4925	6243.400526370479	16.515630659955
6	4930	6262.42616957846	5.84777187032
6	4938	6267.85114911826	1.375349957859
6	4940	6275.090145478079	8.21090317457
6	4948	6296.222810214041	5.691500415532
6	4953	6301.834367548424	1.404338150671
6	4955	6311.061647026269	16.131383074246
6	4963	6325.134632743787	4.219262213267
6	4965	6328.929890777958	9.700936470743
6	4973	6336.094610529122	0.510778912932
6	4975	6338.622203326675	5.75517079221
6	4980	6343.648835560359	2.756614049483
6	4985	6350.977337850501	5.342692706406
6	4990	6355.017331823638	0.49796334456
6	4995	6366.395824638174	4.918508186746
6	5000	6380.522088548134	7.53403624504
