version 2
run General-9-20170504-11:38:06-96976
attr configname General
attr datetime 20170504-11:38:06
attr experiment General
attr inifile omnetpp.ini
attr iterationvars ""
attr iterationvars2 $repetition=9
attr measurement ""
attr network Toll_road
attr processid 96976
attr repetition 9
attr replication #9
attr resultdir results
attr runnumber 9
attr seedset 9
param **.numBooths 3
param **.queue[*].serviceTime exponential(5.11s)
param **.source.interArrivalTime exponential(5.854s)
param **.source.numJobs 1000

vector 2  Toll_road.queue[2]  jobsProcessed:vector  ETV
attr interpolationmode  none
attr source  queueingTime
attr title  "jobs processed, vector"
vector 0  Toll_road.queue[0]  jobsProcessed:vector  ETV
attr interpolationmode  none
attr source  queueingTime
attr title  "jobs processed, vector"
vector 3  Toll_road.sink  lifeTime:vector  ETV
attr interpolationmode  none
attr title  "lifetime of arrived jobs, vector"
attr unit  s
vector 1  Toll_road.queue[1]  jobsProcessed:vector  ETV
attr interpolationmode  none
attr source  queueingTime
attr title  "jobs processed, vector"
0	6	2.714559552998	0
0	18	8.948218752936	0
0	38	15.767446354293	0
0	42	31.175124264358	3.065529238918
0	60	48.748548693264	5.841576849969
0	62	54.942364916164	11.183534270058
0	91	103.438000842743	0
0	101	109.98615653486	0
0	108	130.68100297495	0
0	118	149.263198694469	0
0	125	153.699293504231	4.1561233642
0	132	157.203415317303	1.520678590711
0	141	164.304125108241	0
0	151	193.654168630128	0
0	177	215.804557786357	7.786744366438
0	198	232.583153214028	0
0	202	244.858101842598	2.81935190399
0	207	247.260824139666	1.43107848785
0	221	263.397936835346	0
0	236	272.737343536036	0
0	251	285.433075031404	0
0	277	304.252714724138	0
0	308	332.290506314417	0
0	322	343.142449772178	0
0	336	366.622790992545	0
0	353	389.28938811026	0
0	410	455.030008058842	0
0	427	464.48371096451	0
0	448	507.238377658781	0
0	459	516.449833630495	0
0	473	528.388650927772	0
0	478	536.349093637487	0
0	499	555.575509477743	0
0	504	560.290795414699	0
0	543	604.069423781253	0
0	548	611.920684918525	0
0	552	614.92786744341	0.712007261548
0	558	619.276806343167	0
0	569	631.33968583715	0
0	596	645.694517853275	10.678499609063
0	623	686.375261454082	0
0	630	689.448573637746	2.894866222255
0	638	702.670162491099	0
0	643	705.471639127661	0
0	653	723.181072232025	0
0	658	738.092755988715	0
0	678	755.419104697157	0
0	686	759.99085119212	0
0	703	782.761605791441	0
0	713	801.073521554198	0
0	723	822.317322538387	0
0	748	854.639827156574	0
0	773	882.726939033939	0
0	788	898.618685417144	0
0	793	905.22108619471	0
0	798	919.862609061791	0
0	802	920.554439802742	0.12784318529
0	807	924.39109019836	2.114745304289
0	823	944.62417576625	0
0	827	946.552785423163	1.112135444982
0	843	962.87089182794	0
0	847	982.530536229752	13.367588467571
0	876	1003.587962771652	0
0	882	1009.928092595277	1.964812844109
0	888	1028.767079785699	0
0	901	1058.848438039518	0
0	908	1063.507002243285	0
0	929	1085.962015669224	0
0	956	1126.746217069896	0
0	968	1137.24449203792	0
0	1028	1203.069868846577	0
0	1051	1234.075189482525	0
0	1063	1252.003883193306	0
0	1068	1257.012915152495	0
0	1078	1292.126334817939	0
0	1093	1325.183835804777	0
0	1100	1333.893439706413	7.169049725985
0	1108	1353.33280557329	0
0	1127	1372.124320289223	0
0	1138	1381.00815626441	0
0	1163	1441.367030940731	0
0	1187	1477.343197486745	0
0	1213	1517.449374811314	0
0	1239	1543.334850994776	20.518314126984
0	1246	1550.20101983274	23.61104987799
0	1248	1554.959945685663	12.545914564883
0	1252	1558.724916200427	12.314381957064
0	1263	1561.550530070829	0
0	1268	1579.868108328105	0
0	1276	1585.316463857937	0
0	1286	1596.805268984725	0
0	1307	1625.866813486115	0
0	1341	1658.34144835287	0
0	1356	1666.722251324966	0
0	1383	1728.363126392409	0
0	1393	1735.308091306868	4.404430087295
0	1395	1737.765652173838	5.565876212325
0	1411	1746.511771759419	0
0	1418	1759.161487212846	0
0	1428	1765.416198105287	0
0	1452	1777.504419391978	0
0	1468	1804.84535405006	0
0	1476	1825.354177246986	0
0	1483	1829.485646229323	0
0	1508	1858.698885771845	0
0	1515	1860.884411477382	0.212902459957
0	1523	1875.298837190445	0
0	1533	1889.221371771866	0
0	1546	1896.602389124807	0
0	1553	1903.33061149057	4.402027752623
0	1624	1958.577167067326	0
0	1636	1972.850079463811	0
0	1658	1996.838948672159	0
0	1678	2013.965446418954	0
0	1718	2105.044110873882	0
0	1723	2113.640760994674	0
0	1773	2176.555124623206	0
0	1784	2185.963621966539	0
0	1801	2206.86832783313	0
0	1810	2209.611665632846	2.188345961855
0	1818	2217.82818077408	0
0	1823	2235.717833437948	0
0	1833	2245.436194983027	0
0	1843	2251.659692711712	0
0	1850	2254.820212086942	1.119957544361
0	1882	2291.207944309674	0
0	1902	2309.927256000414	0
0	1911	2311.915670450097	1.345768403819
0	1923	2326.385504445784	0
0	1948	2341.967159493963	0
0	1962	2360.381371972365	0
0	1988	2389.076522441129	0
0	1995	2404.09061788882	10.858439698975
0	1997	2404.520712377137	7.640734918533
0	2008	2415.675688605729	0
0	2021	2427.057968190644	0
0	2028	2432.599269374186	0
0	2052	2465.473784221248	0
0	2060	2468.063375748886	0
0	2093	2488.386002330815	0
0	2113	2507.301689092356	0
0	2118	2518.627494458916	0
0	2123	2522.334709297616	0
0	2139	2532.608141241028	0
0	2158	2556.773589389693	0
0	2166	2561.827448946589	0
0	2184	2580.059880953607	0
0	2203	2607.113224361278	0
0	2208	2626.396591988909	0
0	2221	2666.762441070323	0
0	2226	2675.070735697609	0
0	2233	2679.642034500498	0
0	2238	2685.512925831366	0
0	2250	2705.541911758704	18.666682392289
0	2255	2710.034820349122	8.160710348793
0	2291	2777.66060463292	0
0	2297	2778.914350113122	0.83748698706
0	2303	2784.542002335555	0
0	2307	2789.406728366649	3.144379238403
0	2336	2815.152459638383	0
0	2351	2822.057480442439	6.478390892934
0	2353	2822.259324594635	6.018025443291
0	2360	2826.314624749984	8.765948866897
0	2373	2837.564015364871	0
0	2389	2870.234886612556	0
0	2398	2883.518817296364	12.637024861374
0	2443	2918.473908915064	0
0	2453	2942.157727476943	0
0	2457	2945.700147502642	2.170972900863
0	2479	2970.835789498604	0
0	2494	2986.407728840492	0
0	2528	3013.455439791967	0
0	2563	3057.135811734567	0
0	2573	3072.420583392897	0
0	2582	3075.708770010619	1.684853919322
0	2596	3092.527844345041	0
0	2602	3100.141664599352	1.333785921258
0	2623	3126.294253371641	15.926651663161
0	2633	3134.547546728843	22.972480875126
0	2640	3139.164306898907	2.274050560217
0	2648	3151.944616927945	0
0	2673	3185.397851905998	0
0	2700	3209.564005332534	15.592368646465
0	2705	3212.448592888161	16.799857775415
0	2716	3224.865981621544	13.710811840222
0	2718	3225.221087271479	11.192614557076
0	2725	3230.257031030937	13.407652034733
0	2727	3236.465348928524	17.870053071867
0	2749	3263.135588382529	0
0	2770	3284.336193174552	19.635490272122
0	2788	3306.569180546791	0
0	2808	3336.23422046746	0
0	2813	3343.401462042336	0
0	2828	3369.916482887466	0
0	2833	3373.447606450593	0
0	2840	3382.97643958802	7.906879607103
0	2845	3391.403805275	13.034536214022
0	2856	3397.266213101079	0
0	2873	3410.187185546387	0
0	2891	3436.171787185078	0
0	2906	3448.733952793301	0
0	2943	3487.576001361774	0
0	2948	3500.063147609776	0
0	2984	3566.27233263771	0
0	3020	3600.697475511069	0
0	3038	3609.767441371323	7.785029805787
0	3048	3613.958499795868	1.571155935143
0	3071	3633.304801852171	0
0	3078	3638.528774328864	2.580033838985
0	3116	3673.102214273233	0
0	3133	3689.652086118001	0
0	3141	3695.530218077586	0
0	3150	3704.210984460315	0.736970650469
0	3173	3750.719730851326	0
0	3193	3770.884797290549	0
0	3202	3773.913271088011	2.96105676326
0	3223	3800.769753122486	0
0	3236	3827.815447152773	0
0	3256	3837.465238128089	7.240595424803
0	3263	3839.929743569538	8.074971732169
0	3278	3857.746298654633	0
0	3286	3858.867346767779	0
0	3308	3886.653743458052	0
0	3318	3905.709933953848	14.167194555945
0	3320	3906.415292615378	7.7100775696
0	3336	3950.393225450319	0
0	3348	3970.416034914287	0
0	3368	3996.839544066071	0
0	3378	4009.460115588181	0
0	3382	4014.33572697146	1.588152917766
0	3388	4016.935342153345	0
0	3398	4035.166607581612	0
0	3410	4044.610714187148	8.616143101648
0	3412	4050.372733506953	9.901183288263
0	3422	4057.049244115213	1.771163909248
0	3433	4065.241464579331	0
0	3446	4081.073689480384	0
0	3456	4102.826246537762	0
0	3488	4202.110008277206	0
0	3492	4203.819189237657	0.015618907199
0	3508	4216.2358070605	0
0	3546	4267.229366323987	0
0	3553	4274.384384856697	0
0	3576	4286.731648338875	0
0	3582	4291.719335018516	3.657262228916
0	3606	4339.759125188056	0
0	3613	4343.978502830249	0
0	3621	4347.860941640615	0
0	3632	4363.520394653748	5.418865996126
0	3641	4369.405612119609	0
0	3646	4372.349442565454	0
0	3652	4373.484021913238	0.618711003075
0	3658	4383.351121437467	0
0	3668	4399.129717057791	13.957760803502
0	3677	4401.0834070718	1.908468223443
0	3698	4423.945409644616	0
0	3708	4437.394689866192	0
0	3733	4460.546893184333	0
0	3742	4467.548809430721	0.470554233535
0	3752	4474.072056248507	2.517974669683
0	3763	4487.590029380275	0
0	3776	4506.990854606449	0
0	3786	4510.682721422712	0
0	3801	4518.073470723338	0
0	3808	4527.429171751798	0
0	3826	4549.205424945709	0
0	3863	4606.260201201492	0
0	3901	4684.994608042041	0
0	3923	4699.640757446811	12.47626333424
0	3927	4707.001380917924	18.271282575936
0	3938	4716.900041106442	9.485866626423
0	3963	4732.886971491173	0
0	3968	4736.640231572655	0
0	3978	4752.320539128527	0
0	3990	4768.39373445986	12.769961960834
0	4000	4773.972009670804	8.304346549701
0	4007	4775.608936133889	1.483459100404
0	4013	4783.365406688558	0
0	4017	4784.283230972922	0.602015306217
0	4029	4790.680054287071	0
0	4058	4849.761101318694	0
0	4068	4860.938128793478	0
0	4079	4879.981791922338	0
0	4093	4913.653051768886	0
0	4103	4924.07875545308	0
0	4110	4931.998105556688	1.069069775319
0	4120	4938.629356565585	4.907090965379
0	4125	4946.849168100642	9.543821791429
0	4141	4964.881763311462	0
0	4153	4986.675841302926	0
0	4173	5008.910241406112	0
0	4191	5078.118462542012	0
0	4211	5081.639140304224	2.669404735197
0	4223	5095.354628625768	0
0	4241	5113.660735044075	0
0	4248	5119.795753070255	0
0	4258	5135.20216343271	0
0	4281	5164.622929562566	0
0	4293	5174.772760508151	0
0	4306	5194.537612954632	0
0	4346	5223.251624199659	0
0	4352	5225.006541284956	1.400092484148
0	4358	5226.516928344211	0
0	4368	5244.819902864853	0
0	4383	5264.692368686972	0
0	4396	5281.347141475506	0
0	4403	5284.102160365207	0
0	4416	5295.242588595323	0
0	4432	5304.463896701944	0.168060902022
0	4437	5310.939474547675	5.932245321573
0	4453	5386.057428220558	0
0	4463	5396.836231893124	0
0	4471	5409.50355842654	0
0	4488	5442.464144193131	0
0	4498	5453.969848465293	0
0	4508	5456.125590387692	0
0	4513	5470.606163043532	0
0	4518	5472.531226554616	0
0	4523	5484.465944238496	0
0	4527	5485.987340888944	0.592184770939
0	4541	5504.585140309102	0
0	4548	5507.59857184212	1.336918176618
0	4550	5507.669510188013	0.502867654769
0	4563	5528.627331195376	0
0	4567	5539.418846658382	3.619353643909
0	4580	5556.319619212186	5.755560553035
0	4648	5649.024569611449	0
0	4676	5670.861876730323	0
0	4689	5689.516776069013	0
0	4720	5723.157366151138	22.899087951764
0	4727	5729.744488438195	12.530674989922
0	4761	5749.719797158109	0
0	4773	5759.793377467196	9.581437611831
0	4775	5766.675142007036	14.522531260212
0	4782	5770.284986052491	14.808343493455
0	4790	5775.910441532668	2.007602504568
0	4801	5786.400448847277	0
0	4813	5797.495379663091	10.350113835675
0	4818	5798.536698591475	6.52368224829
0	4842	5817.39346140495	23.367161341173
0	4849	5819.905971360994	21.479017059865
0	4854	5824.842775491894	25.666096956715
0	4861	5837.155396384748	31.545857998124
0	4869	5846.164504726294	34.307819312205
0	4871	5846.903547140098	26.195796969882
0	4918	5912.374766424661	0
0	4922	5916.481336124359	3.513897484438
0	4938	5959.367431238679	0
0	4943	5961.717709099875	0
0	4948	5967.533992414461	0
0	4953	5970.648010791572	0
0	4981	5995.470603958701	0
0	4992	6011.525763804647	0.796606114844
1	13	6.7229649155	0
1	26	11.258010672313	0
1	32	13.424045749303	1.652030222916
1	46	35.87630694812	0
1	66	62.24692027143	0
1	70	66.499001180612	1.392180653302
1	78	75.305831181942	0
1	83	91.826927588252	0
1	88	102.349792371154	0
1	165	204.994006145132	0
1	213	259.503486121667	0
1	226	266.529982940133	0
1	233	271.189747722649	0
1	258	290.437440868735	0
1	278	308.493753004555	15.619074904496
1	280	312.457101946118	13.121192775167
1	291	315.330334518794	0
1	301	328.231559079866	0
1	313	341.463401307059	0
1	323	349.987923886925	7.859347861154
1	333	366.204604123781	0
1	342	372.922780531769	1.676367349515
1	361	397.567192856675	0
1	376	419.367435119121	0
1	386	428.614015461695	0
1	393	431.666390366683	0
1	401	444.195598787162	0
1	415	459.726522794363	12.380502281665
1	428	471.192219073178	9.087361491841
1	430	476.486039841086	13.951675396469
1	436	483.522218726085	0
1	442	492.54041317349	6.907605273238
1	453	514.360677195649	0
1	466	518.861007883095	0
1	494	551.32359469963	0
1	516	564.235693460104	0
1	583	635.983833592139	0
1	588	638.414987650728	0
1	595	644.86170009862	0
1	607	653.759982963811	0
1	618	677.963268107351	0
1	661	738.575154631452	0
1	683	758.665254399145	0
1	731	843.595740136986	0
1	741	852.645403979382	0
1	754	863.093241758533	0
1	768	877.763110110456	0
1	778	886.286560262251	0
1	813	931.018109136766	0
1	831	946.559936911427	0
1	838	961.429605651977	0
1	851	983.906594075805	0
1	858	992.319530932616	0
1	863	994.495545231645	0
1	868	995.472919527673	0
1	893	1034.733063396463	0
1	898	1054.027203156983	0
1	918	1077.456491351591	0
1	925	1079.703610333766	1.822225349271
1	935	1088.615727486442	9.431800375476
1	937	1090.110128177229	2.14019286921
1	943	1112.789469142865	0
1	948	1121.031216200484	0
1	952	1124.114622660407	0.86665960591
1	989	1178.783103003715	0
1	999	1184.309701594033	0
1	1006	1190.880243925564	0
1	1033	1216.584340936927	0
1	1038	1216.952241890836	0
1	1042	1221.380834908816	3.287990901228
1	1113	1360.387938124829	0
1	1121	1366.548565911716	0
1	1153	1403.597970280895	0
1	1158	1420.117311797823	0
1	1173	1457.661788618779	0
1	1178	1469.702513338537	0
1	1188	1477.455122041083	6.273299313602
1	1192	1478.583153468179	4.168314969813
1	1203	1497.053587136527	0
1	1222	1527.904271046662	0
1	1230	1536.730936230602	0
1	1241	1543.683964385052	6.928833045075
1	1313	1628.531955325705	0
1	1322	1634.239881418765	0
1	1338	1653.12805798487	0
1	1350	1662.234372515222	0.419772822215
1	1368	1685.480378745441	0
1	1373	1691.335187733486	0
1	1392	1733.012868959377	0
1	1403	1741.65705964236	0
1	1408	1743.16845690014	0
1	1423	1761.608954952817	0
1	1431	1765.515639277596	0
1	1440	1772.115305979338	5.270151844321
1	1442	1774.306365130569	6.522965419254
1	1486	1831.544208259866	0
1	1496	1837.862631591926	0
1	1503	1851.343597034233	0
1	1528	1881.431248816281	0
1	1536	1890.122709452804	0
1	1562	1905.40213654394	0
1	1567	1907.061179213937	0
1	1578	1920.385959767461	0
1	1582	1926.182151242328	5.755628269178
1	1611	1947.777646989217	0
1	1625	1959.941604159039	7.419011225732
1	1633	1970.703779736435	0
1	1648	1980.275479247333	0
1	1666	1999.828415849299	0
1	1696	2051.358755440524	0
1	1710	2076.633255685171	15.433687664912
1	1712	2082.20441515908	10.381402094777
1	1733	2129.907255597484	0
1	1743	2153.889437228179	0
1	1759	2167.849496209487	0
1	1765	2170.995165144957	0.639027806431
1	1778	2181.094453437784	0
1	1785	2187.093530021751	5.471040267665
1	1793	2195.639626453817	0
1	1798	2198.831497908285	0
1	1826	2237.769559167634	0
1	1854	2259.121395965123	0
1	1878	2289.136133764162	13.207976671039
1	1894	2303.652736697787	0
1	1898	2308.907276354026	4.24116155729
1	1915	2312.613705602317	2.462743615852
1	1926	2326.4854463236	0
1	1937	2330.974917062853	0
1	1953	2357.407031630828	0
1	1968	2362.202790278825	0.495271544406
1	1983	2383.044268239037	0
1	2003	2408.645767877113	0
1	2013	2425.179901522757	0
1	2038	2453.55738710804	0
1	2043	2457.633173623895	0
1	2070	2471.861698197452	10.130698500089
1	2074	2475.153551675176	3.434025978973
1	2106	2501.812278802893	0
1	2131	2525.378625072919	0
1	2144	2537.976400927467	0
1	2163	2559.684602685168	0
1	2173	2567.887892880262	0
1	2216	2661.382008066482	0
1	2254	2705.679749085575	0
1	2263	2734.825510368733	0
1	2267	2740.062502920158	4.696178117401
1	2273	2743.196025990672	0
1	2283	2762.05037729496	0
1	2288	2772.993689158216	0
1	2318	2799.085940984838	0
1	2350	2820.154788734951	0
1	2359	2825.909378264551	0
1	2376	2850.848941189165	0
1	2385	2867.772003059129	3.493610467619
1	2396	2882.745246533411	16.400840735885
1	2400	2883.99450806488	6.373790154946
1	2406	2891.334112379752	0
1	2413	2893.828297892471	0
1	2422	2901.956142260479	4.367927411799
1	2430	2909.09216320379	4.161789913541
1	2437	2912.319061978855	6.294862980908
1	2448	2930.330006650252	0
1	2463	2951.580870484252	0
1	2473	2969.593377294045	0
1	2488	2982.246270699002	0
1	2508	2995.192981282828	0.162427964354
1	2533	3022.157955665182	0
1	2537	3024.706801702323	2.211815305735
1	2548	3032.627830246001	0
1	2553	3042.296336020047	0
1	2576	3073.193024947323	0
1	2593	3089.370132568281	0
1	2606	3100.448136398822	0
1	2617	3112.4770175022	0
1	2622	3124.370591503637	0
1	2629	3133.593976567557	0
1	2653	3160.764765452264	0
1	2676	3188.607019270868	0
1	2733	3240.154858526449	0
1	2761	3276.173884518948	0
1	2823	3361.084343270294	0
1	2844	3391.17305398855	0
1	2853	3395.865406253039	0
1	2878	3414.752356013923	0
1	2896	3441.485644456869	0
1	2902	3444.556679340378	2.690743164264
1	2913	3454.895448081708	0.496651341006
1	2923	3461.116898022504	2.555453766114
1	2933	3479.270543325843	0
1	2938	3481.899642855321	0
1	2951	3500.488393588784	0
1	2957	3504.470463293748	0.212360678761
1	2968	3511.624494721474	0
1	2978	3558.08764209032	0
1	2985	3566.347550691167	3.15075897419
1	2996	3570.870129819248	3.7749960215
1	3003	3578.308562356516	9.208673250277
1	3007	3579.199588003809	2.988947286513
1	3021	3601.816719814532	14.949104968345
1	3029	3603.878145985095	10.639863201164
1	3031	3607.127226874737	4.183607173769
1	3040	3610.718670018303	1.949742535128
1	3052	3618.279121370878	5.980269516319
1	3061	3626.273598295801	0
1	3066	3627.747272718998	0
1	3077	3638.151395245186	0
1	3084	3640.811609502302	0
1	3091	3642.531563576775	1.676890725356
1	3106	3663.279027824424	0
1	3138	3694.952809425247	0
1	3158	3731.008833078446	0
1	3165	3738.221722971126	5.30662316148
1	3183	3753.89707716097	0
1	3188	3764.536677453856	0
1	3199	3771.653564091897	0
1	3213	3793.587977360451	0
1	3217	3797.254770515057	1.239751082113
1	3228	3820.446177865933	0
1	3247	3833.097369005802	0
1	3255	3837.054120928336	0
1	3273	3851.139359220742	0
1	3283	3858.795821408789	0
1	3298	3870.037435086191	0
1	3317	3902.419340040776	0
1	3328	3945.770605781965	0
1	3353	3980.521086644928	0
1	3358	3983.965564284205	0
1	3373	3999.499667523948	0
1	3391	4021.699024103555	0
1	3404	4039.060560238316	0
1	3453	4100.611788907582	0
1	3462	4117.314474746418	10.488786308191
1	3471	4130.441733122107	0
1	3496	4206.262116388909	0
1	3513	4230.768784726986	0
1	3523	4236.973090758431	0
1	3533	4257.619352305817	0
1	3561	4281.200407745986	0
1	3570	4284.470578052419	0.907317861835
1	3572	4285.557852297526	1.302089889888
1	3588	4298.881193204134	0
1	3598	4323.337045842045	0
1	3603	4335.300235791774	0
1	3618	4347.467351314725	0
1	3629	4358.270396591664	0
1	3686	4416.214339339576	0
1	3713	4441.709217019037	0
1	3721	4448.147256857044	0
1	3768	4492.616496301229	0
1	3773	4504.547793127315	0
1	3782	4510.046850885146	1.867772045219
1	3798	4517.684649771044	0
1	3821	4545.371555973041	0
1	3841	4562.931574011462	7.283536147207
1	3853	4572.008793114896	14.838465589803
1	3855	4575.780780770425	13.775693762207
1	3857	4587.521746706882	20.159338592052
1	3866	4613.056227092134	0
1	3871	4620.222379498494	0
1	3886	4651.905702178154	0
1	3893	4669.19554587305	0
1	3898	4683.641560352917	0
1	3915	4690.554576335591	0
1	3937	4716.648567224245	0
1	3947	4718.551233166561	0
1	3958	4728.165768926041	0
1	3971	4737.856591636909	0
1	3984	4761.195128756145	0
1	3994	4770.283315663205	0
1	4048	4821.656465125551	0
1	4053	4841.900212799309	0
1	4088	4907.75558592292	0
1	4098	4915.005396683829	0
1	4124	4944.365880960817	0
1	4131	4959.308810183216	0
1	4138	4964.492144678224	0
1	4156	4989.955396943463	0
1	4183	5068.023215830786	0
1	4187	5072.521149703261	2.609244782607
1	4204	5080.253931595083	0
1	4215	5088.492453049974	7.381672323717
1	4238	5111.367764831025	0
1	4273	5161.380669474468	0
1	4296	5176.148722135299	0
1	4303	5189.803823585539	0
1	4411	5293.096160689726	0
1	4424	5301.473943466721	0
1	4443	5358.293331411936	0
1	4447	5362.346209495842	3.209526154183
1	4483	5434.248113257907	0
1	4501	5454.604989880474	0
1	4533	5496.13714673052	0
1	4558	5516.673474960683	0
1	4571	5545.238937013836	0
1	4578	5554.956308482599	2.114203634493
1	4598	5576.482669272786	0
1	4603	5587.216713286675	0
1	4608	5589.193811935421	0
1	4618	5601.074033593636	0
1	4623	5604.47056869217	0
1	4628	5613.554166117269	0
1	4633	5616.655490184862	0
1	4643	5643.377808691702	0
1	4653	5651.856568348784	0
1	4657	5653.49135765839	0.600577593138
1	4662	5659.513482504812	5.577842357245
1	4667	5666.093698023033	4.756991970325
1	4686	5687.831659114893	0
1	4697	5698.015886168799	0
1	4707	5701.389357434383	0
1	4724	5727.379471381449	0
1	4731	5735.169769858601	0
1	4745	5742.069777342269	1.092238334446
1	4756	5748.398427568981	0
1	4779	5767.543690686917	0
1	4825	5799.636410192829	0
1	4840	5815.223288523009	10.314549723758
1	4848	5819.584808072999	0
1	4860	5826.882286086105	0
1	4875	5850.329444100032	9.751182984165
1	4877	5853.422162624967	7.335424685593
1	4883	5856.008602018774	0
1	4891	5861.526349829446	0
1	4908	5890.887232011198	0
1	4928	5918.167889650554	0
1	4933	5930.702134764451	0
1	4956	5972.489756654577	0
1	4966	5980.179872597038	0
1	4971	5986.370131563815	0
1	4984	5999.298688948251	0
2	3	0.061047530578	0
2	21	10.391904197579	0
2	57	44.614630348677	0
2	94	103.848178799078	0
2	113	137.164564891575	0
2	124	152.037138137216	0
2	138	160.95614556651	0
2	148	186.841821625928	0
2	155	200.09173706546	4.207790969498
2	166	205.284826802353	3.303249443418
2	168	206.234086868053	3.160931062192
2	183	217.282016125822	0
2	188	218.086206481824	0
2	192	221.472169014293	0.837829723474
2	216	261.960848136423	0
2	241	277.009014919989	0
2	248	282.141950095637	0
2	261	292.547457134954	0
2	268	296.705352097444	2.956129144948
2	286	313.331170877949	0
2	296	322.37801853018	0
2	316	341.506208259056	0
2	348	379.610133627399	0
2	356	393.26673164117	0
2	368	410.106376753357	0
2	373	414.421199370744	0
2	380	423.946060412809	4.133655410352
2	398	439.387108470601	0
2	411	456.931145685299	12.007715174448
2	456	515.29796013262	0
2	481	538.293874874986	0
2	488	547.545004323693	0
2	495	553.260404995313	2.068714432341
2	508	563.066887462954	2.624463662746
2	521	566.814598376845	0
2	527	572.041504176948	4.348628549869
2	533	585.838410152074	0
2	538	588.786373683194	0
2	563	629.701590533106	0
2	576	635.21632239147	5.190516958954
2	589	643.641055538025	12.036601943855
2	610	660.616238185642	24.743927469379
2	612	661.660412669776	8.803547544606
2	629	689.24954937454	0
2	646	707.314774015709	0
2	668	743.59759644509	0
2	673	748.258642157487	0
2	693	770.219024848564	0
2	698	771.904572968071	0
2	706	786.040124587294	0
2	718	807.240233007774	0
2	728	843.37795591795	0
2	738	852.35191027718	0
2	751	857.013099691959	0
2	762	874.321647956423	6.566871857778
2	783	890.824064802717	0
2	816	938.075431247126	0
2	873	1003.39994243191	0
2	913	1073.800319740322	0
2	959	1127.079928007824	0
2	973	1142.366952967999	0
2	978	1151.546381743369	0
2	983	1160.61007562516	0
2	995	1183.466008936052	15.459444994593
2	1000	1184.726768385469	2.908553414211
2	1013	1198.189193953875	0
2	1017	1199.248669196698	0.337211808031
2	1023	1201.868435602831	0
2	1048	1228.973304896527	0
2	1056	1234.970858208944	0
2	1073	1267.122440426454	0
2	1083	1298.234994242815	0
2	1087	1301.716886720302	3.371342584144
2	1099	1333.350705333561	0
2	1116	1361.384369467388	0
2	1128	1372.422452145326	4.64187997961
2	1143	1386.85661101616	0
2	1148	1391.977110460042	0
2	1168	1448.414723025056	0
2	1198	1490.841624124423	0
2	1206	1509.68137738811	0
2	1227	1535.502870803544	0
2	1258	1560.29369025905	0
2	1273	1584.558892634499	0
2	1282	1590.617399647196	0.515713236321
2	1293	1611.976300805005	0
2	1298	1617.572062164101	0
2	1316	1630.953428585532	13.342846486909
2	1318	1632.668749486171	12.012800007597
2	1323	1636.783069907706	9.053847679255
2	1333	1642.462749412349	0
2	1346	1661.468479384968	0
2	1363	1672.137203080605	0
2	1376	1701.396680600162	0
2	1446	1776.051415767904	0
2	1457	1782.638894990403	6.329695629602
2	1463	1799.604312784703	0
2	1473	1824.792990605102	0
2	1489	1833.04321542511	0
2	1511	1858.792822563669	0
2	1543	1896.552967816533	0
2	1558	1904.322148948663	2.596641759304
2	1572	1917.801222917198	14.010456083014
2	1586	1929.688891285233	0
2	1593	1933.497513236264	0
2	1597	1934.577348883725	0.545285642458
2	1603	1942.843640142542	0
2	1608	1943.928984729714	0
2	1619	1956.361869158537	0
2	1643	1979.24345870737	0
2	1653	1993.135863171662	0
2	1661	1997.726119888426	0
2	1673	2011.108623825173	0
2	1683	2038.704076754106	0
2	1687	2043.374881108625	0.939042146461
2	1692	2050.315636642114	6.107730371103
2	1707	2075.369654641569	0
2	1728	2125.413733613396	0
2	1736	2135.157936168558	0
2	1748	2156.821930164217	0
2	1753	2164.612866108504	0
2	1763	2170.61499025906	3.716198429029
2	1809	2209.201358519919	0
2	1838	2248.420626875097	0
2	1846	2253.584820341583	0
2	1861	2272.106084560083	0
2	1866	2275.909016516771	0
2	1873	2287.450029213132	8.191901011299
2	1890	2301.227609587287	12.342755881667
2	1903	2309.980114822607	11.142525695238
2	1929	2328.579838539222	0
2	1938	2333.467444625989	4.179239596754
2	1956	2358.301004193184	0
2	1970	2362.229285007854	2.876549102153
2	1976	2365.773488719032	0
2	2018	2426.471246007705	0
2	2031	2433.646746374154	0
2	2049	2463.583728251477	0
2	2072	2472.304102224349	4.765126776862
2	2080	2478.767822488504	9.890487900983
2	2082	2481.95391941665	10.439496689935
2	2088	2486.648925278907	0
2	2098	2495.100152382266	0
2	2103	2499.54121606731	0
2	2128	2524.860574931074	0
2	2145	2539.809911439293	7.414916295587
2	2152	2549.981745935541	7.966390421047
2	2178	2578.735365352812	0
2	2187	2582.127672138072	2.075914262162
2	2193	2595.605746797979	0
2	2198	2605.401593854517	0
2	2213	2661.045549697656	0
2	2244	2691.456415133983	0
2	2278	2756.421726534996	0
2	2311	2791.792181124068	0
2	2321	2799.543930641095	0
2	2327	2803.980235626999	0.762631293948
2	2332	2807.873375714959	0.371212016868
2	2368	2832.395944095438	0
2	2416	2894.809715408353	0
2	2434	2909.140713071115	0
2	2466	2953.484819925525	0
2	2476	2969.88741909834	0
2	2491	2983.900494164058	0
2	2501	2988.721868155607	1.414556219443
2	2513	2997.70652272216	9.730404493374
2	2515	2998.172387984593	1.059706035798
2	2522	3006.752178782535	6.711563333267
2	2543	3028.381784852748	0
2	2556	3043.386744967178	0
2	2568	3065.521303494877	0
2	2586	3080.60068525687	0
2	2632	3133.790618844917	0
2	2658	3162.617588168532	0
2	2663	3169.38504410952	0
2	2668	3176.912376162647	0
2	2679	3190.697250349317	0
2	2692	3204.408717922542	0
2	2696	3206.427023510648	1.48544456978
2	2722	3226.693435228704	0
2	2736	3242.011354469754	0
2	2743	3255.276128808027	0
2	2764	3276.620723754354	18.156801781126
2	2766	3282.392966779464	18.077968952114
2	2768	3283.813284371969	11.838290561594
2	2778	3296.207024319466	0
2	2783	3301.610277787931	0
2	2791	3310.943842837529	0
2	2798	3322.975842654986	0
2	2803	3327.230487716545	0
2	2818	3350.545893118634	0
2	2861	3397.382618719304	0
2	2867	3404.187338874525	5.994389887167
2	2883	3424.347078750794	0
2	2888	3436.073770858196	0
2	2909	3452.549148431919	0
2	2925	3465.487139768794	8.270069652693
2	2961	3505.218695025709	0
2	2973	3527.884211984435	0
2	2995	3570.707412318997	0
2	3014	3592.23778042988	0
2	3058	3625.381758581299	0
2	3097	3654.871919775136	13.234042904375
2	3103	3655.588533728601	0
2	3113	3671.79958128584	0
2	3123	3676.800831807019	0
2	3127	3683.850459958077	3.360921810591
2	3146	3703.333111806315	0
2	3164	3736.107938558761	0
2	3176	3751.638913820352	0
2	3208	3791.195756831265	0
2	3231	3821.557054862417	0
2	3250	3835.233376088429	0
2	3267	3846.450444443814	8.235537513174
2	3293	3867.727128764441	0
2	3303	3885.265564732223	0
2	3333	3949.871130167865	0
2	3342	3956.750744353755	1.601572216533
2	3361	3988.091225155668	0
2	3416	4051.535339527448	0
2	3426	4058.585095505426	0
2	3436	4065.969978367612	0
2	3443	4080.585205248057	0
2	3466	4120.458637051293	0
2	3478	4160.84374891948	0
2	3483	4165.905062440988	0
2	3501	4208.641438864258	0
2	3516	4231.652454343537	0
2	3528	4245.765251318486	0
2	3538	4261.390646995772	0
2	3543	4266.739106413966	0
2	3558	4279.781365771493	0
2	3593	4321.725472043149	0
2	3636	4363.942065507584	0
2	3664	4397.627705810499	0
2	3673	4399.651726286846	0.711705369296
2	3681	4405.808787479676	0
2	3691	4417.650952298366	0
2	3703	4432.932933098286	0
2	3718	4445.206922337811	0
2	3728	4453.508469640275	0
2	3736	4466.26188912197	0
2	3746	4469.009664220494	0
2	3758	4475.64287049674	0
2	3791	4512.862644250311	0
2	3811	4529.118956479327	0
2	3816	4542.06551765808	0
2	3837	4561.253020885745	0
2	3847	4566.642929128286	0
2	3878	4642.186652266971	0
2	3882	4649.059988375843	6.240132792738
2	3912	4690.435521812749	0
2	3922	4693.7977172147	0
2	3934	4710.354170913834	0
2	3950	4718.762306404408	0.268527516989
2	3997	4771.775814116469	0
2	4023	4787.207716579277	0
2	4030	4790.71188049926	0.544220700889
2	4038	4794.026433102012	0
2	4043	4816.952285720265	0
2	4061	4851.091852085661	0
2	4071	4865.51364680445	0
2	4082	4881.222369743077	11.747797214124
2	4109	4931.876230726253	0
2	4148	4979.670561965499	0
2	4163	5003.849017127688	0
2	4167	5007.061722036372	2.637033189368
2	4178	5024.353115860481	0
2	4194	5078.935722205162	0
2	4210	5081.607914498466	0
2	4228	5106.247924179017	0
2	4232	5107.88025077193	0.652347955528
2	4253	5127.77411443094	0
2	4261	5137.982047578074	0
2	4265	5149.244399153457	5.308185445632
2	4276	5161.401666347194	0
2	4286	5168.945437098449	0
2	4313	5199.724036940491	0
2	4323	5203.555357377661	1.944600642765
2	4328	5204.516727288138	2.133022807285
2	4330	5209.265600212586	6.742542484264
2	4338	5216.766143732935	13.003028122554
2	4340	5217.082716392547	4.973696659029
2	4342	5222.401282705013	7.223736477969
2	4363	5236.404390646681	0
2	4371	5249.209429096715	0
2	4377	5255.172564755332	3.095730532706
2	4386	5266.323131722322	0
2	4393	5281.060347168996	0
2	4406	5290.602641829114	0
2	4419	5297.463064222544	0
2	4458	5391.081859608213	0
2	4468	5407.527966114757	0
2	4476	5420.631528070622	0
2	4491	5442.53774836509	0
2	4536	5498.633553660495	0
2	4588	5563.470523537049	0
2	4592	5567.343907722193	2.502030244616
2	4611	5590.334433888453	0
2	4636	5627.488087520335	0
2	4673	5668.516489429761	0
2	4683	5683.85838996807	0
2	4700	5698.782148131849	7.059792012629
2	4716	5722.127441765702	7.521281931136
2	4736	5738.004173478499	0
2	4740	5740.518764735762	2.421965012401
2	4751	5745.995213176962	0
2	4789	5775.114488387941	0
2	4798	5781.732347753671	0
2	4828	5800.054437723458	0
2	4888	5861.230298207581	0
2	4898	5881.791892072686	0
2	4903	5888.446156174432	0
2	4913	5896.999009320679	0
2	4963	5979.904836322258	0
2	4977	5995.047054853496	3.752902161942
2	4998	6014.704253401672	0
3	8	3.448731370772	0.734171817774
3	10	3.594149680469	3.533102149891
3	15	6.79149791008	0.06853299458
3	23	11.154376104199	0.76247190662
3	28	11.718648095773	2.770429342837
3	33	13.424045749303	2.16603507699
3	35	15.362635745801	3.590620219414
3	43	31.175124264358	15.407677910065
3	48	40.221896657422	4.345589709302
3	59	48.729822044869	4.115191696192
3	61	48.748548693264	20.638953667824
3	63	54.942364916164	12.035393072869
3	71	66.499001180612	4.252080909182
3	73	69.608590618824	25.849759972718
3	75	73.899548630459	8.792728103149
3	80	83.626514707386	8.320683525444
3	85	92.39069401506	0.563766426808
3	96	106.111935607624	3.76214323647
3	98	106.888616859839	3.450616017096
3	103	111.034892224204	1.048735689344
3	105	117.099691239779	13.251512440701
3	110	135.135284004996	4.454281030046
3	115	149.262053835996	12.097488944421
3	126	153.699293504231	4.436094809762
3	128	154.95358187071	2.916443733494
3	133	157.203415317303	7.660245177272
3	135	157.975060143962	2.29232341737
3	143	171.397748278477	10.441602711967
3	145	177.873845797189	13.569720688948
3	156	200.09173706546	13.249915439532
3	167	205.284826802353	9.400880706391
3	169	206.234086868053	4.252509509118
3	171	207.633825254446	4.560669448585
3	176	210.717113968145	5.723107823013
3	178	215.804557786357	22.150389156229
3	180	216.711381706034	8.693568286115
3	185	217.653322502561	0.371306376739
3	193	221.472169014293	3.385962532469
3	195	223.706962674258	3.072623383439
3	203	244.858101842598	12.27494862857
3	208	247.260824139666	5.222074201058
3	210	255.594601807853	9.764856156037
3	218	262.504021816364	3.000535694697
3	223	264.630081454684	1.232144619338
3	228	266.721430424667	0.191447484534
3	230	268.643316633086	6.682468496663
3	238	276.482754382334	3.745410846298
3	243	277.050806523321	0.041791603332
3	245	277.863164746239	6.67341702359
3	253	286.17372989269	0.740654861286
3	255	288.923646371409	6.781696275772
3	269	296.705352097444	4.15789496249
3	274	300.165506582015	6.416283629519
3	279	308.493753004555	18.05631213582
3	281	312.457101946118	19.582423846059
3	283	312.663729669305	13.327820498354
3	288	313.886932798766	0.555761920817
3	293	316.156234593558	0.825900074764
3	298	322.5330020825	0.15498355232
3	303	328.871736791973	24.619022067835
3	305	330.468022165135	2.236463085269
3	310	339.541424810473	7.250918496056
3	324	349.987923886925	8.524522579866
3	326	350.598034075978	8.469458050207
3	328	354.23644030657	12.730232047514
3	330	354.923990972286	11.781541200108
3	338	368.168462725744	1.545671733199
3	343	372.922780531769	6.718176407988
3	345	374.847527515266	3.601114333012
3	350	381.922648955705	2.312515328306
3	358	393.308971629391	4.019583519131
3	363	401.857129376354	4.289936519679
3	365	405.189725493294	11.922993852124
3	370	413.707419718846	3.601042965489
3	381	423.946060412809	9.524861042065
3	383	428.612200889242	9.244765770121
3	388	428.803760979304	0.189745517609
3	390	431.178994683315	11.366589680858
3	395	436.044576356809	4.378185990126
3	412	456.931145685299	17.544037214698
3	414	458.754761071553	13.831330560702
3	416	459.726522794363	15.530924007201
3	418	461.633424959454	6.603416900612
3	429	471.192219073178	23.84619856048
3	431	476.486039841086	14.381182259749
3	433	478.077840608873	15.543476164256
3	438	484.169005061252	19.685294096742
3	443	492.54041317349	9.018194447405
3	445	498.464647356713	12.831839456461
3	450	511.160966438322	3.922588779541
3	461	517.032676825653	2.671999630004
3	463	517.622333471019	1.172499840524
3	468	522.028779275147	3.167771392052
3	470	526.387073017767	11.089112885147
3	475	532.984674062981	4.596023135209
3	483	538.307402040928	0.013527165942
3	485	546.453735257477	10.10464161999
3	496	553.260404995313	5.71540067162
3	501	557.818658024838	2.243148547095
3	509	563.066887462954	11.875196899982
3	511	564.145192780603	12.821598080973
3	513	564.23177666704	3.940981252341
3	518	564.28948513201	3.847061331802
3	526	568.482890557007	4.247197096903
3	528	572.041504176948	5.226905800103
3	530	578.753625496212	11.060749869133
3	535	586.58938471613	0.750974564056
3	540	590.629802250275	1.843428567081
3	545	608.555031847759	4.485608066506
3	553	614.92786744341	3.007182524885
3	555	615.929319838819	1.713459656957
3	560	627.10048863423	7.823682291063
3	577	635.21632239147	5.514731858364
3	585	637.797991345377	1.814157753238
3	590	643.641055538025	13.615250105509
3	592	644.681273052779	6.266285402051
3	597	645.694517853275	14.354832016125
3	599	651.268856273947	6.407156175327
3	601	651.618723010507	16.602704766295
3	609	655.6488793003	1.888896336489
3	611	660.616238185642	29.011784591472
3	613	661.660412669776	25.788101953513
3	615	665.116175996051	12.259310870881
3	620	678.181814743643	0.218546636292
3	631	689.448573637746	3.073312183664
3	633	689.877084914246	3.323377498755
3	635	690.993185920473	1.743636545933
3	640	703.262053869598	0.591891378499
3	648	708.348258186105	1.033484170396
3	650	708.879986054018	3.408346926357
3	655	730.486042118223	7.304969886198
3	663	740.113145542486	2.020389553771
3	665	740.685171250625	2.110016619173
3	670	747.711364708682	4.113768263592
3	675	749.439815266025	1.181173108538
3	680	758.043702962255	2.624598265098
3	688	760.658749187435	0.667897995315
3	690	766.345292245085	7.68003784594
3	695	770.753414116302	0.534389267738
3	700	772.527550944543	0.622977976472
3	708	788.532837420878	2.492712833584
3	710	796.506704572978	13.745098781537
3	715	802.152230034144	1.078708479946
3	720	807.265597539623	0.025364531849
3	725	823.265894608084	0.948572069697
3	733	844.513059377649	1.135103459699
3	735	849.26713840713	5.671398270144
3	743	852.932795450723	0.287391471341
3	745	854.480404698634	2.128494421454
3	756	864.875383218432	1.782141459899
3	758	867.630474358125	12.990647201551
3	763	874.321647956423	17.308548264464
3	765	876.426974744808	8.672198646163
3	770	878.759444358052	0.996334247596
3	775	884.19618824617	1.469249212231
3	780	886.956492588651	0.6699323264
3	785	890.876479525062	0.052414722345
3	790	900.864503308797	2.245817891653
3	795	907.213472527027	1.992386332317
3	803	920.554439802742	0.691830740951
3	808	924.39109019836	3.964493580908
3	810	925.95214932557	3.675804431499
3	818	942.161870711905	4.086439464779
3	820	942.529314391372	11.511205254606
3	828	946.552785423163	1.928609656913
3	833	947.352748793175	0.792811881748
3	835	949.744430778023	4.303780799842
3	840	961.89109641113	0.461490759153
3	848	982.530536229752	19.659644401812
3	853	987.436327227285	18.273379465104
3	855	988.584563906975	4.67796983117
3	860	992.934045184836	0.61451425222
3	865	994.878828341307	0.383283109662
3	870	997.635836721441	2.162917193768
3	878	1006.28038507501	2.8804426431
3	883	1009.928092595277	6.340129823625
3	885	1010.090667782547	2.127388031379
3	890	1033.49761122696	4.730531441261
3	895	1039.309505787753	4.57644239129
3	903	1061.10429393796	7.077090780977
3	905	1062.327164396248	3.47872635673
3	910	1067.629879117545	4.12287687426
3	915	1073.94666115835	0.146341418028
3	926	1079.703610333766	2.247118982175
3	931	1087.565774117262	1.603758448038
3	936	1088.615727486442	10.734342501947
3	938	1090.110128177229	10.926201066263
3	940	1095.884051394466	7.914116086447
3	945	1118.529857532967	5.740388390102
3	953	1124.114622660407	3.083406459923
3	961	1127.499338453382	0.753121383486
3	963	1130.441675668178	7.193712613681
3	965	1133.526246743396	6.446318735572
3	970	1137.532627731984	0.288135694064
3	975	1142.437606603832	0.070653635833
3	980	1152.447950499344	0.901568755975
3	994	1181.869375891752	3.086272888037
3	996	1183.466008936052	22.855933310892
3	1001	1184.726768385469	16.72020444401
3	1003	1188.155556166235	3.845854572202
3	1008	1192.119303177928	1.239059252364
3	1010	1194.304654653334	12.486439682076
3	1018	1199.248669196698	1.059475242823
3	1020	1201.330879067333	2.419421678666
3	1025	1202.541828937071	0.67339333424
3	1030	1204.589705307358	1.519836460781
3	1035	1216.802661851149	0.218320914222
3	1043	1221.380834908816	4.42859301798
3	1045	1222.141811926972	4.048967919384
3	1053	1234.795554802272	5.822249905745
3	1058	1235.582333969247	1.507144486722
3	1060	1244.898952042232	9.928093833288
3	1065	1256.448120960577	4.444237767271
3	1070	1259.375707153758	2.362792001263
3	1075	1278.416251388306	11.293810961852
3	1080	1294.052186230773	1.925851412834
3	1088	1301.716886720302	3.481892477487
3	1090	1306.023736326231	7.678192190073
3	1101	1333.893439706413	8.709603901636
3	1103	1334.721269964807	7.996879984379
3	1105	1334.796280772252	1.445575438691
3	1110	1359.912021221249	6.579215647959
3	1118	1361.774386959488	1.386448834659
3	1129	1372.422452145326	11.038082677938
3	1131	1372.841071437991	6.292505526275
3	1133	1374.121028146849	6.340455981133
3	1135	1375.910212763437	3.785892474214
3	1140	1381.251601963582	0.243445699172
3	1145	1391.664760845781	4.808149829621
3	1150	1393.14054940591	1.163438945868
3	1155	1413.501060675322	9.903090394427
3	1160	1421.198337643158	1.081025845335
3	1165	1442.942444711609	1.575413770878
3	1170	1450.647803805362	2.233080780306
3	1175	1466.342252629769	8.68046401099
3	1189	1477.455122041083	7.752608702546
3	1191	1477.529522162203	0.186324675458
3	1193	1478.583153468179	7.401330740698
3	1195	1481.68283559687	7.267997098504
3	1200	1491.031125141711	0.189501017288
3	1208	1510.029677682602	12.976090546075
3	1210	1510.247592508568	0.566215120458
3	1224	1528.448863197005	0.544592150343
3	1235	1537.240090018719	1.737219215175
3	1240	1543.334850994776	25.885476183462
3	1242	1543.683964385052	6.95302815445
3	1247	1550.20101983274	27.384482964948
3	1249	1554.959945685663	28.369975730913
3	1251	1558.140914654054	21.385783314077
3	1253	1558.724916200427	16.310885079647
3	1255	1559.620767330777	13.210233087414
3	1260	1560.468662630279	0.174972371229
3	1265	1567.330163067565	5.779632996736
3	1270	1583.493206885988	3.625098557883
3	1278	1586.695210594107	1.37874673617
3	1283	1590.617399647196	6.058507012697
3	1288	1596.838765655338	0.033496670613
3	1290	1602.895996424128	12.794310013253
3	1295	1614.980506883173	3.004206078168
3	1315	1630.77717665635	2.245221330645
3	1317	1630.953428585532	13.381366421431
3	1319	1632.668749486171	15.058167387548
3	1324	1636.783069907706	16.127120429132
3	1326	1638.264920775732	12.398107289617
3	1328	1641.378543841755	13.649321613304
3	1330	1642.349827944426	8.109946525661
3	1335	1642.54848472178	0.085735309431
3	1343	1658.522243710756	0.180795357886
3	1351	1662.234372515222	9.106314530352
3	1353	1663.103707643944	1.635228258976
3	1358	1667.105626533299	5.291026840292
3	1360	1672.04572631689	5.323474991924
3	1365	1673.896047866237	1.758844785632
3	1370	1687.710323046274	2.229944300833
3	1378	1708.527942825306	17.19275509182
3	1380	1709.559665676411	8.162985076249
3	1394	1735.308091306868	6.944964914459
3	1396	1737.765652173838	6.861990954265
3	1398	1738.951232764926	6.751456803413
3	1400	1740.803640616123	7.790771656746
3	1405	1742.221625892366	0.564566250006
3	1413	1749.59856681675	3.086795057331
3	1415	1752.747413228087	9.578956327947
3	1420	1759.977472425822	0.815985212976
3	1425	1763.164684955239	1.555730002422
3	1439	1768.282542273366	2.866344168079
3	1441	1772.115305979338	6.599666701742
3	1443	1774.306365130569	7.461210995552
3	1454	1778.346904045552	0.842484653574
3	1456	1781.343475292467	13.560075581152
3	1458	1782.638894990403	6.587479222499
3	1460	1785.145741130998	8.836541770197
3	1465	1801.228886357385	1.624573572682
3	1470	1810.962205424517	6.116851374457
3	1478	1825.444191372623	0.090014125637
3	1480	1825.814187889428	1.021197284326
3	1491	1835.11258557664	3.568377316774
3	1493	1835.621653120401	2.578437695291
3	1498	1839.897225785146	2.03459419322
3	1500	1845.110148890926	15.624502661603
3	1505	1852.040375509638	0.696778475405
3	1516	1860.884411477382	2.185525705537
3	1518	1861.783718358306	1.112209340881
3	1520	1864.73812844441	5.945305880741
3	1525	1877.826646658582	2.527809468137
3	1530	1882.648896518408	1.217647702127
3	1538	1890.219547000214	0.09683754741
3	1540	1891.575005745938	2.353633974072
3	1554	1903.33061149057	6.728222365763
3	1559	1904.322148948663	7.76918113213
3	1564	1905.727718485675	0.325581941735
3	1569	1907.139394441959	8.210810704012
3	1571	1911.974333213255	4.913153999318
3	1573	1917.801222917198	16.075715727839
3	1575	1918.673341790418	14.882574956234
3	1583	1926.182151242328	5.796191474867
3	1588	1931.113326541213	1.42443525598
3	1590	1931.198305499589	10.771782526439
3	1598	1934.577348883725	1.079835647461
3	1600	1939.559230894745	5.527167653478
3	1605	1942.884238730622	0.04059858808
3	1613	1949.099596664166	5.170611934452
3	1621	1957.313010471067	0.95114131253
3	1626	1959.941604159039	12.163957169822
3	1628	1961.09908587257	8.576492939263
3	1630	1964.283676370086	5.70650930276
3	1638	1974.420937965205	1.570858501394
3	1640	1975.375282692838	4.671502956403
3	1645	1979.609696361999	0.366237654629
3	1650	1982.685109527011	2.409630279678
3	1655	1993.277211820992	0.14134864933
3	1663	1998.080203437704	0.354083549278
3	1668	2001.15317088631	4.314222214151
3	1670	2002.98694010898	3.158524259681
3	1675	2013.715136298677	2.606512473504
3	1680	2014.611805652295	0.646359233341
3	1688	2043.374881108625	4.670804354519
3	1693	2050.315636642114	7.87979767995
3	1698	2053.243708213494	9.035801942483
3	1709	2075.515745786976	0.146091145407
3	1711	2076.633255685171	25.274500244647
3	1713	2082.20441515908	21.004847138821
3	1715	2083.761281496224	11.938268431921
3	1720	2105.091744596987	0.047633723105
3	1725	2120.103728275517	6.462967280843
3	1730	2125.866650202693	0.452916589297
3	1738	2137.62413736796	2.466201199402
3	1740	2141.942628668991	12.035373071507
3	1745	2154.49119803431	0.601760806131
3	1750	2158.797386867168	1.975456702951
3	1764	2170.61499025906	6.002124150556
3	1766	2170.995165144957	3.14566893547
3	1768	2174.480718509307	7.581926679276
3	1770	2175.046113758417	4.689976419891
3	1775	2176.555439000804	0.000314377598
3	1786	2187.093530021751	5.999076583967
3	1788	2189.456312399555	7.833822645469
3	1790	2191.827991275903	5.864369309364
3	1795	2196.856529387671	1.216902933854
3	1806	2209.194495380162	10.362997471877
3	1811	2209.611665632846	2.743337799716
3	1813	2210.547378564298	1.346020044379
3	1815	2217.238687803851	9.81536813286
3	1820	2221.272128934252	3.443948160172
3	1828	2238.070404921648	0.300845754014
3	1830	2238.328178438442	2.610345000494
3	1835	2245.793028014975	0.356833031948
3	1840	2248.759464441893	0.338837566796
3	1851	2254.820212086942	3.16051937523
3	1856	2261.069090108488	7.368835565907
3	1858	2270.351691343816	16.766871002233
3	1863	2272.564901798851	0.458817238768
3	1874	2287.450029213132	11.541012696361
3	1879	2289.136133764162	30.014737799039
3	1884	2295.791348554222	4.583404244548
3	1886	2295.91625096735	19.988093874227
3	1891	2301.227609587287	21.969481385454
3	1899	2308.907276354026	5.254539656239
3	1904	2309.980114822607	21.095261116987
3	1912	2311.915670450097	1.988414449683
3	1914	2311.977376818545	1.407474772267
3	1916	2312.613705602317	7.947590805581
3	1918	2313.653816112798	14.816226985429
3	1920	2318.220296777557	8.069334791092
3	1934	2329.960678681659	3.475232358059
3	1939	2333.467444625989	4.887606086767
3	1941	2335.564887667877	6.276682638642
3	1943	2340.023270545935	13.637766100151
3	1945	2341.861840710741	10.886923647888
3	1950	2343.042516300164	1.075356806201
3	1964	2361.133131225529	0.751759253164
3	1969	2362.202790278825	4.795758647997
3	1971	2362.229285007854	3.92828081467
3	1973	2365.125325552935	5.772589647234
3	1978	2367.895534276136	6.188015541717
3	1980	2375.645312656045	9.871823937013
3	1985	2388.818072391737	5.7738041527
3	1996	2404.09061788882	15.014095447691
3	1998	2404.520712377137	11.288534187292
3	2000	2404.988061486812	8.108084028208
3	2005	2409.522786206325	0.877018329212
3	2010	2418.29322927319	2.617540667461
3	2015	2425.457788565361	0.277887042604
3	2023	2427.095683697791	0.624437690086
3	2025	2431.022738782741	3.964770592097
3	2033	2436.630101602095	2.983355227941
3	2035	2437.734817246391	5.135547872205
3	2040	2456.39443186457	2.83704475653
3	2054	2467.474451453994	2.000667232746
3	2071	2471.861698197452	14.228524573557
3	2073	2472.304102224349	8.720373972872
3	2075	2475.153551675176	13.422551977813
3	2077	2475.628761721045	7.565385972159
3	2079	2478.372632759459	6.653107063256
3	2081	2478.767822488504	11.228847041017
3	2083	2481.95391941665	13.076584829129
3	2085	2482.210963213092	10.696540486377
3	2090	2487.970051833638	1.321126554731
3	2095	2494.612923628506	6.226921297691
3	2100	2496.522121968126	1.42196958586
3	2108	2501.941744743045	2.400528675735
3	2110	2503.940253727944	2.127974925051
3	2115	2508.404179550275	1.102490457919
3	2120	2521.566739711878	2.939245252962
3	2125	2524.753324857241	2.418615559625
3	2136	2532.482692149148	7.104067076229
3	2141	2536.80693175797	4.198790516942
3	2146	2539.809911439293	14.949336508219
3	2148	2541.046731947454	3.070331019987
3	2153	2549.981745935541	17.586750791835
3	2155	2554.119651399849	12.104295885355
3	2160	2558.950963742971	2.177374353278
3	2168	2564.376691002413	2.549242055824
3	2170	2564.536508562327	4.851905877159
3	2175	2574.082953172918	6.195060292656
3	2186	2580.794608097989	0.734727144382
3	2188	2582.127672138072	3.39230678526
3	2190	2585.484406488721	5.432648612811
3	2195	2597.470387941157	1.864641143178
3	2200	2606.820883092839	1.419289238322
3	2205	2608.090153572875	0.976929211597
3	2210	2634.774437374169	8.37784538526
3	2218	2663.840198991734	2.458190925252
3	2223	2671.326412570317	4.563971499994
3	2228	2677.174867806852	2.104132109243
3	2230	2678.131433423637	17.085883725981
3	2235	2681.251331451387	1.609296950889
3	2246	2692.627493806181	1.171078672198
3	2251	2705.541911758704	20.028985927338
3	2256	2710.034820349122	23.159590982707
3	2258	2711.017228854304	5.337479768729
3	2260	2715.297218115204	13.423108114875
3	2268	2740.062502920158	5.236992551425
3	2270	2740.354128872811	4.987804070054
3	2275	2747.865869484003	4.669843493331
3	2280	2756.852984741157	0.431258206161
3	2285	2772.613890997863	10.563513702903
3	2296	2778.873186201628	5.879497043412
3	2298	2778.914350113122	1.253745480202
3	2300	2781.898300599526	3.821437473464
3	2308	2789.406728366649	4.864726031094
3	2313	2793.447089049741	1.654907925673
3	2315	2795.490279712743	9.227930584497
3	2323	2802.450852916012	3.364911931174
3	2328	2803.980235626999	4.436304985904
3	2333	2807.873375714959	4.655771381908
3	2347	2818.786174867893	11.284011169802
3	2352	2822.057480442439	6.905020804056
3	2354	2822.259324594635	6.68023504513
3	2356	2822.288887334679	2.134098599728
3	2361	2826.314624749984	10.07332559864
3	2363	2828.103862613652	10.555186730565
3	2365	2828.233873026367	2.324494761816
3	2370	2833.892492353295	1.496548257857
3	2378	2852.246508126859	14.682492761988
3	2386	2867.772003059129	16.923061869964
3	2397	2882.745246533411	18.466853941901
3	2399	2883.518817296364	13.283930683808
3	2401	2883.99450806488	17.650102267354
3	2403	2886.055696219682	8.434978309748
3	2408	2892.098099064206	0.763986684454
3	2410	2893.39214356171	22.51035112672
3	2421	2897.72328516699	2.913569758637
3	2423	2901.956142260479	8.127844368008
3	2431	2909.09216320379	11.50394835511
3	2436	2909.759212683877	0.618499612762
3	2438	2912.319061978855	7.388688688606
3	2440	2913.900201282004	7.876002284057
3	2445	2918.908904687562	0.434995772498
3	2450	2932.851495101345	2.521488451093
3	2458	2945.700147502642	3.542420025699
3	2460	2949.493573117405	5.964398515626
3	2468	2957.597408029116	4.112588103591
3	2470	2961.197791402171	9.616920917919
3	2481	2972.962120668057	2.126331169453
3	2483	2978.238428348027	8.351009249687
3	2485	2978.251271387776	8.657894093731
3	2502	2988.721868155607	4.821373991549
3	2504	2993.461455404538	7.053726564046
3	2509	2995.192981282828	12.946710583826
3	2514	2997.70652272216	10.399210785996
3	2516	2998.172387984593	10.196269755807
3	2521	3001.736190066734	6.70563674826
3	2523	3006.752178782535	9.63949683374
3	2525	3007.290178680503	7.249563231235
3	2530	3014.439054115705	0.983614323738
3	2538	3024.706801702323	2.548846037141
3	2540	3028.061638477028	5.56665208044
3	2545	3031.346459528212	2.964674675464
3	2550	3039.989073528294	7.361243282293
3	2558	3043.595733811209	0.208988844031
3	2560	3057.021498238211	14.725162218164
3	2565	3060.180238724367	3.0444269898
3	2570	3066.823761846683	1.302458351806
3	2581	3075.399234427041	2.206209479718
3	2583	3075.708770010619	3.288186617722
3	2588	3081.763438318587	7.73952222729
3	2590	3084.583425470786	3.982740213916
3	2601	3100.004251065043	10.634118496762
3	2603	3100.141664599352	7.613820254311
3	2611	3110.969902897661	10.521766498839
3	2619	3115.28372599535	2.80670849315
3	2624	3126.294253371641	27.486374693547
3	2626	3129.946404542636	5.575813038999
3	2634	3134.547546728843	24.179945020363
3	2636	3136.278926916987	2.48830807207
3	2641	3139.164306898907	27.58924104519
3	2643	3139.770874301213	6.176897733656
3	2645	3149.283451230477	12.393194891787
3	2650	3153.08186934228	1.137252414335
3	2655	3161.113666247729	0.348900795465
3	2660	3167.563773703956	4.946185535424
3	2665	3171.659758665551	2.274714556031
3	2670	3178.486647628062	1.574271465415
3	2684	3195.50816633779	4.810915988473
3	2689	3200.819128753206	12.212109482338
3	2697	3206.427023510648	2.018305588106
3	2699	3209.258977119309	4.317398178441
3	2701	3209.564005332534	24.166153426536
3	2706	3212.448592888161	18.476956202092
3	2717	3224.865981621544	29.217246508798
3	2719	3225.221087271479	14.065917490157
3	2724	3226.945184100626	0.251748871922
3	2726	3230.257031030937	16.228558316534
3	2728	3236.465348928524	19.61596993232
3	2730	3238.592750852386	19.997454995729
3	2738	3247.944527470565	5.933173000811
3	2740	3248.461499540548	8.306641014099
3	2763	3276.263416879571	0.089532360623
3	2765	3276.620723754354	21.344594946327
3	2767	3282.392966779464	23.929044806236
3	2769	3283.813284371969	19.498286544619
3	2771	3284.336193174552	21.200604792023
3	2773	3284.77037996913	20.0696770667
3	2775	3289.437301054805	17.46230724443
3	2780	3296.825444421486	0.61842010202
3	2785	3302.614372623497	1.004094835566
3	2793	3312.298107614483	5.728927067692
3	2795	3318.291732461357	7.347889623828
3	2800	3324.589658166314	1.613815511328
3	2805	3330.429154595039	3.198666878494
3	2810	3342.059343476224	5.825123008764
3	2815	3344.145856514705	0.744394472369
3	2820	3358.57835035891	8.032457240276
3	2825	3367.929384562065	6.845041291771
3	2830	3370.40630398414	0.489821096674
3	2841	3382.97643958802	9.528833137427
3	2846	3391.403805275	16.334245294083
3	2848	3392.263771269596	1.090717281046
3	2850	3395.739258446138	17.36998938516
3	2858	3397.336572268011	1.471166014972
3	2866	3400.740041007669	3.47382790659
3	2868	3404.187338874525	6.804720155221
3	2870	3404.313381844261	6.120432856903
3	2875	3412.255097850666	2.067912304279
3	2880	3419.521163531597	4.768807517674
3	2885	3431.263538137548	6.916459386754
3	2893	3436.292822286742	0.121035101664
3	2901	3442.851344157145	6.777573298949
3	2903	3444.556679340378	3.071034883509
3	2914	3454.895448081708	13.029511905594
3	2916	3456.219241917436	7.485289124135
3	2924	3461.116898022504	6.718101281802
3	2926	3465.487139768794	12.937991336875
3	2928	3466.468833113851	9.25176299775
3	2930	3468.424373454203	9.862929197813
3	2935	3479.603270943612	0.332727617769
3	2940	3484.011457752454	2.111814897133
3	2945	3488.995055842018	1.419054480244
3	2953	3502.676412570477	2.613264960701
3	2958	3504.470463293748	3.982069704964
3	2963	3508.007093984713	3.748991369726
3	2965	3511.161482432632	5.942787406923
3	2970	3514.490670303137	2.866175581663
3	2975	3537.831050457157	9.946838472722
3	2986	3566.347550691167	8.259908600847
3	2997	3570.870129819248	7.673338102271
3	3002	3576.996861934564	10.724529296854
3	3004	3578.308562356516	11.213428558768
3	3006	3578.560148881944	7.852736562947
3	3008	3579.199588003809	10.09969889757
3	3022	3601.816719814532	25.606079097236
3	3030	3603.878145985095	17.010531138908
3	3032	3607.127226874737	13.888944090806
3	3034	3607.238244555379	15.000464125499
3	3039	3609.767441371323	9.069965860254
3	3041	3610.718670018303	7.775050317335
3	3049	3613.958499795868	11.976088230332
3	3051	3615.331130902216	2.943787041491
3	3053	3618.279121370878	9.510193887703
3	3055	3618.70223704664	6.403385192081
3	3063	3626.439080215378	0.165481919577
3	3068	3628.788424643684	1.041151924686
3	3079	3638.528774328864	5.223972476693
3	3081	3640.127415275556	1.97602003037
3	3092	3642.531563576775	1.719954074473
3	3094	3643.081156279513	2.226483428094
3	3096	3652.003506945514	16.054766455635
3	3098	3654.871919775136	29.490161193837
3	3100	3654.987918422375	13.350041551614
3	3108	3664.636863225232	9.048329496631
3	3110	3665.112119822998	1.833091998574
3	3118	3673.894546239701	2.094964953861
3	3120	3674.466936858392	1.364722585159
3	3128	3683.850459958077	7.049628151058
3	3130	3685.108436314106	4.61889816662
3	3135	3690.967753240352	1.315667122351
3	3143	3695.539964702213	0.587155276966
3	3151	3704.210984460315	8.680766382729
3	3153	3705.702068507319	2.368956701004
3	3155	3713.725923244921	10.251909435075
3	3166	3738.221722971126	7.21288989268
3	3168	3738.528764327957	5.613664518311
3	3170	3741.065436288963	4.957497730202
3	3178	3752.181201462628	0.542287642276
3	3180	3753.220053313195	2.500322461869
3	3185	3760.096196596578	6.199119435608
3	3190	3765.069277133407	0.532599679551
3	3201	3773.515083919668	1.861519827771
3	3203	3773.913271088011	3.028473797462
3	3205	3784.167180181876	13.214965857125
3	3210	3792.652690351457	1.456933520192
3	3218	3797.254770515057	3.666793154606
3	3220	3799.184374405554	3.16935497261
3	3225	3802.709114807742	1.939361685256
3	3233	3822.728256225791	2.282078359858
3	3241	3830.688647284785	9.131592422368
3	3252	3836.281410775918	3.184041770116
3	3257	3837.465238128089	9.649790975316
3	3262	3839.360006421429	2.305885493093
3	3264	3839.929743569538	9.705100866252
3	3266	3840.44165655603	8.586884718661
3	3268	3846.450444443814	11.217068355385
3	3270	3850.578719608516	12.363812677876
3	3275	3856.330639248053	5.191280027311
3	3280	3858.360352938085	0.614054283452
3	3288	3863.414297140752	4.546950372973
3	3290	3863.81059228026	5.014770871471
3	3295	3868.724216785572	0.997088021131
3	3300	3870.345402200964	0.307967114773
3	3305	3885.816979653578	0.551414921355
3	3319	3905.709933953848	19.056190495796
3	3321	3906.415292615378	14.872553217475
3	3323	3906.460546663703	7.755331617925
3	3325	3906.974197152638	4.554857111862
3	3330	3946.830994992463	1.060389210498
3	3338	3954.421745666958	4.028520216639
3	3343	3956.750744353755	6.87961418589
3	3345	3968.635130327579	13.485958190357
3	3350	3971.370802392801	0.954767478514
3	3355	3981.604104200267	1.083017555339
3	3363	3988.224114256647	4.258549972442
3	3365	3991.65424223788	3.563017082212
3	3370	3998.09125382515	1.251709759079
3	3375	4006.669006297671	7.169338773723
3	3383	4014.33572697146	4.875611383279
3	3385	4016.804488873071	4.056914819377
3	3393	4022.623697849942	5.688355696597
3	3395	4031.317372252175	9.61834814862
3	3406	4039.235575836246	0.17501559793
3	3411	4044.610714187148	9.444106605536
3	3413	4050.372733506953	14.378162421453
3	3421	4056.839476266948	5.3041367395
3	3423	4057.049244115213	16.577693896523
3	3428	4058.86626107649	3.588180870525
3	3430	4060.100138514101	1.515043008675
3	3438	4069.794562521031	3.824584153419
3	3440	4071.491597797243	6.250133217912
3	3448	4082.04791973924	0.974230258856
3	3450	4086.458791660152	5.873586412095
3	3461	4107.143023588954	4.316777051192
3	3463	4117.314474746418	16.702685838836
3	3468	4120.629058503405	13.803370065178
3	3473	4133.277190594034	12.818553542741
3	3475	4135.890732121568	5.448998999461
3	3480	4161.31892939646	0.47518047698
3	3485	4167.484849030355	1.579786589367
3	3493	4203.819189237657	1.709180960451
3	3498	4207.294851594794	1.032735205885
3	3503	4211.037000933971	7.233430603513
3	3505	4212.137631853026	3.496192988768
3	3510	4221.414740122805	5.178933062305
3	3518	4232.911968282695	1.259513939158
3	3520	4236.702979772789	5.934195045803
3	3525	4237.916310649714	0.943219891283
3	3530	4251.139176257373	5.373924938887
3	3535	4258.799763689584	1.180411383767
3	3540	4261.553870151229	0.163223155457
3	3548	4272.16243322434	5.423326810374
3	3550	4272.437320625659	5.207954301672
3	3555	4275.946254633813	1.561869777116
3	3563	4281.346349623381	1.564983851888
3	3571	4284.470578052419	3.270170306433
3	3573	4285.557852297526	1.994592106942
3	3581	4288.868493189244	4.612730781606
3	3583	4291.719335018516	4.987686679641
3	3585	4291.785981707316	3.723908917716
3	3590	4302.173477999463	3.292284795329
3	3595	4322.25523999159	0.529767948441
3	3600	4327.875129251478	4.538083409433
3	3608	4341.309371799418	6.009136007644
3	3610	4342.852857741392	3.093732553336
3	3615	4346.772790224034	2.794287393785
3	3626	4358.15785781603	10.690506501305
3	3631	4359.929586430518	1.659189838854
3	3633	4363.520394653748	15.659453013133
3	3638	4364.323902241125	6.222373583503
3	3643	4371.697868314691	2.292256195082
3	3648	4372.83380642607	8.891740918486
3	3653	4373.484021913238	1.134579347784
3	3655	4373.967776633198	1.102465723035
3	3669	4399.129717057791	15.778595620324
3	3674	4399.651726286846	2.024020476347
3	3676	4400.716685217527	1.776664299977
3	3678	4401.0834070718	15.911450817511
3	3683	4406.533965454925	0.725177975249
3	3688	4416.542238517099	17.367299668742
3	3693	4420.421958731036	2.77100643267
3	3695	4422.845342078114	6.631002738538
3	3700	4430.834506619681	6.889096975065
3	3705	4435.928635417435	2.995702319149
3	3710	4439.366435560116	1.971745693924
3	3715	4442.037942392223	0.328725373186
3	3723	4449.021399503733	3.814477165922
3	3725	4449.292692823152	1.145435966108
3	3730	4460.527612150254	7.019142509979
3	3738	4466.627060386168	0.365171264198
3	3743	4467.548809430721	7.001916246388
3	3751	4473.413285367203	4.403621146709
3	3753	4474.072056248507	6.993801051321
3	3755	4474.157804806304	2.60372322748
3	3760	4479.852106712151	4.209236215411
3	3765	4491.690974084557	4.100944704282
3	3770	4493.377333589618	0.760837288389
3	3781	4509.004670959428	2.013816352979
3	3783	4510.046850885146	5.499057757831
3	3788	4510.963957963672	2.784879123745
3	3793	4513.291395897773	0.428751647462
3	3795	4513.674537078465	2.991815655753
3	3803	4522.099665371585	4.026194648247
3	3805	4525.908518315569	8.223868544525
3	3813	4538.48317572189	9.364219242563
3	3818	4544.198683810184	16.769512058386
3	3823	4547.957506462976	5.891988804896
3	3828	4550.357364282085	1.151939336376
3	3842	4562.931574011462	17.560018038421
3	3844	4563.238026912712	1.985006026967
3	3852	4568.691817005111	2.048887876825
3	3854	4572.008793114896	16.360755250641
3	3856	4575.780780770425	18.610453245332
3	3858	4587.521746706882	25.516659698664
3	3860	4589.370208378118	22.007800263288
3	3868	4613.880337744587	0.824110652453
3	3873	4623.247078171723	16.986876970231
3	3875	4625.627284581219	5.404905082725
3	3883	4649.059988375843	6.873336108872
3	3888	4652.111561508397	9.291705925292
3	3890	4652.951294084367	1.045591906213
3	3895	4671.965440065328	2.769894192278
3	3909	4689.997484519616	6.355924166699
3	3917	4691.102455630644	0.666933817895
3	3919	4693.279349763587	2.724773427996
3	3924	4699.640757446811	14.64614940477
3	3926	4703.796556541696	9.998839326996
3	3928	4707.001380917924	19.836886805353
3	3939	4716.900041106442	28.169942764454
3	3941	4717.144288317155	0.49572109291
3	3949	4718.562141820169	0.010908653608
3	3951	4718.762306404408	8.408135490574
3	3953	4723.717984823901	16.303810343882
3	3955	4726.137466795583	7.643687908164
3	3960	4730.785281020616	2.619512094575
3	3965	4733.448853722922	0.561882231749
3	3973	4739.220972890703	1.364381253794
3	3975	4739.595551912044	2.955320339389
3	3986	4761.365296031918	0.170167275773
3	3991	4768.39373445986	16.073195331333
3	3999	4772.445927666746	0.670113550277
3	4001	4773.972009670804	18.348237171778
3	4003	4774.071969537654	3.788653874449
3	4008	4775.608936133889	9.941273012786
3	4010	4782.203252312785	8.0777752793
3	4018	4784.283230972922	0.917824284364
3	4020	4785.640477600242	1.959261933537
3	4031	4790.71188049926	3.504163919983
3	4033	4792.621188338064	2.453528539693
3	4035	4792.950495587366	2.270441300295
3	4040	4797.14984603748	3.123412935468
3	4045	4817.985664781108	1.033379060843
3	4050	4824.192892545587	2.536427420036
3	4055	4843.289685596857	1.389472797548
3	4063	4854.095905845252	3.004053759591
3	4065	4855.353023057016	5.591921738322
3	4076	4873.065730254332	12.127601460854
3	4081	4880.555552302843	0.573760380505
3	4083	4881.222369743077	15.708722938627
3	4085	4893.352214168575	23.877641639622
3	4090	4907.872868754933	0.117282832013
3	4095	4913.728385510834	0.075333741948
3	4100	4915.099622635625	0.094225951796
3	4111	4931.998105556688	7.919350103608
3	4113	4932.834245911306	0.958015185053
3	4121	4938.629356565585	7.700320784216
3	4126	4946.849168100642	13.126902500436
3	4128	4949.786348803726	5.420467842909
3	4133	4959.969604495117	22.664258185904
3	4135	4964.408417768762	5.099607585546
3	4143	4969.560085565492	4.67832225403
3	4145	4972.897773842101	8.405629163877
3	4150	4983.748027230045	4.077465264546
3	4158	4990.448937436519	3.773096133593
3	4160	4990.874650931029	0.919253987566
3	4168	5007.061722036372	3.212704908684
3	4170	5008.567329264228	4.142640417224
3	4175	5011.039925952037	2.129684545925
3	4180	5029.626080415568	5.272964555087
3	4188	5072.521149703261	4.497933872475
3	4199	5079.702553048299	0.766830843137
3	4201	5080.039004986764	10.12710006611
3	4212	5081.639140304224	3.520677762212
3	4214	5086.201842752597	7.23210718357
3	4216	5088.492453049974	8.238521454891
3	4218	5088.903624253437	7.79284352718
3	4220	5094.591677851248	12.983763352782
3	4225	5096.60726962298	1.252640997212
3	4233	5107.88025077193	1.632326592913
3	4235	5109.593269557894	2.365366741492
3	4243	5115.129104113404	1.468369069329
3	4245	5115.405827454592	4.038062623567
3	4250	5120.270222574463	0.474469504208
3	4255	5129.061763691037	1.287649260097
3	4266	5149.244399153457	11.262351575383
3	4268	5150.305618484546	6.369404776721
3	4270	5157.943208023562	22.741044590852
3	4278	5164.258193301884	2.85652695469
3	4283	5166.077839097847	1.454909535281
3	4288	5171.660133304445	10.279463829977
3	4290	5172.79036818801	3.844931089561
3	4298	5180.912449282577	6.139688774426
3	4300	5182.399194844973	6.250472709674
3	4308	5195.447506423503	5.643682837964
3	4310	5198.300276383246	3.762663428614
3	4324	5203.555357377661	3.83132043717
3	4329	5204.516727288138	2.905970553242
3	4331	5209.265600212586	6.881895731733
3	4339	5216.766143732935	14.243086004613
3	4341	5217.082716392547	13.319600782166
3	4343	5222.401282705013	10.292262971495
3	4348	5223.31391588655	8.136369659506
3	4353	5225.006541284956	1.754917085297
3	4355	5225.782440693543	2.175991892735
3	4360	5234.372939049506	7.856010705295
3	4365	5244.38503904294	7.980648396259
3	4373	5250.222723748704	5.402820883851
3	4378	5255.172564755332	5.963135658617
3	4380	5255.644840147938	3.568005925312
3	4388	5266.611813645356	1.919444958384
3	4390	5269.53814093777	3.215009215448
3	4398	5281.763462670999	0.703115502003
3	4400	5282.587744420878	1.240602945372
3	4408	5290.732533747825	0.129891918711
3	4413	5293.517773585281	9.415613220074
3	4421	5297.48673249018	4.390571800454
3	4426	5301.520337648939	4.057273426395
3	4428	5301.683092627641	0.20914916092
3	4433	5304.463896701944	9.221308106621
3	4438	5310.939474547675	6.643638747753
3	4440	5320.712173744108	15.704944518006
3	4448	5362.346209495842	4.052878083906
3	4450	5363.362859722686	4.226176381027
3	4455	5387.7659368207	1.708508600142
3	4460	5393.703186003934	2.621326395721
3	4465	5400.82459708921	3.988365196086
3	4473	5409.813251759866	2.285285645109
3	4478	5425.034958868432	4.40343079781
3	4480	5433.621354725729	24.117796299189
3	4485	5440.026937914605	5.778824656698
3	4493	5443.878198438086	1.340450072996
3	4495	5448.806602234613	6.342458041482
3	4503	5455.398100695904	1.428252230611
3	4505	5455.926917722373	1.321927841899
3	4510	5461.145313759077	5.019723371385
3	4515	5471.048616004829	0.442452961297
3	4520	5473.761965606786	1.23073905217
3	4528	5485.987340888944	1.521396650448
3	4530	5495.538339672451	10.143183554446
3	4538	5503.860904156875	7.723757426355
3	4549	5507.59857184212	3.013431533018
3	4551	5507.669510188013	1.407856522511
3	4553	5508.470452217353	1.303809684109
3	4555	5508.857182331726	10.223628671231
3	4560	5522.23135411358	5.557879152897
3	4568	5539.418846658382	10.791515463006
3	4579	5554.956308482599	9.717371468763
3	4581	5556.319619212186	20.520126197713
3	4583	5556.855592367924	4.013487519818
3	4585	5560.54694032219	9.982881663039
3	4593	5567.343907722193	3.873384185144
3	4595	5573.130624301678	8.288746824101
3	4600	5577.563317113749	1.080647840963
3	4605	5587.682813370328	0.466100083653
3	4613	5592.286215526565	1.951781638112
3	4615	5596.87594768922	7.682135753799
3	4620	5601.814182348267	0.740148754631
3	4625	5606.055592169997	1.585023477827
3	4630	5616.358532956753	2.804366839484
3	4638	5631.432786455505	3.94469893517
3	4640	5639.585141263404	22.929651078542
3	4645	5648.494687686766	5.116878995064
3	4650	5649.849075948588	0.824506337139
3	4658	5653.49135765839	1.634789309606
3	4663	5659.513482504812	6.62270243956
3	4668	5666.093698023033	12.158057875466
3	4670	5666.296307385215	4.959601332507
3	4678	5673.626154139705	2.764277409382
3	4680	5673.955178653783	5.438689224022
3	4694	5696.651914701077	8.820255586184
3	4699	5698.72131223638	0.705426067581
3	4701	5698.782148131849	14.923758163779
3	4709	5713.631742250448	12.242384816065
3	4717	5722.127441765702	30.405085646482
3	4719	5722.520731422212	7.914571587646
3	4721	5723.157366151138	33.640590082125
3	4726	5728.901403135037	1.521931753588
3	4728	5729.744488438195	29.486210238821
3	4733	5736.941904709592	19.728091261319
3	4741	5740.518764735762	2.514591257263
3	4746	5742.069777342269	6.900007483668
3	4748	5742.964778175206	4.867978451845
3	4753	5746.910302895668	5.932763887845
3	4758	5748.965939594824	0.567512025843
3	4766	5751.624625563085	5.629412386123
3	4774	5759.793377467196	10.073580309087
3	4776	5766.675142007036	16.463202151671
3	4781	5770.145516357128	2.601825670211
3	4783	5770.284986052491	18.132375305667
3	4791	5775.910441532668	20.433798973632
3	4793	5776.169528834245	2.266689806145
3	4795	5777.343493258106	2.229004870165
3	4812	5794.618477508156	12.886129754485
3	4814	5797.495379663091	11.094930815814
3	4819	5798.536698591475	11.391432764059
3	4830	5800.130135034459	0.075697311001
3	4841	5815.223288523009	15.58687833018
3	4843	5817.39346140495	25.380445061765
3	4845	5817.798839555184	12.890100755933
3	4850	5819.905971360994	25.879671297217
3	4855	5824.842775491894	26.415821190765
3	4857	5826.097795682957	6.512987609958
3	4862	5837.155396384748	37.978717849569
3	4870	5846.164504726294	40.55496633967
3	4872	5846.903547140098	35.046861726009
3	4874	5849.885588066043	29.177837895827
3	4876	5850.329444100032	23.447158013927
3	4878	5853.422162624967	12.8439015091
3	4880	5853.956882276096	7.870144336722
3	4885	5856.187813275939	0.179211257165
3	4893	5863.164881597115	1.934583389534
3	4895	5864.555964054826	3.02961422538
3	4900	5883.317924454318	1.526032381632
3	4905	5888.529005336431	0.082849161999
3	4910	5895.022225791298	4.1349937801
3	4915	5898.496186544475	1.497177223796
3	4923	5916.481336124359	4.106569699698
3	4925	5918.007344334789	5.039905694868
3	4930	5919.523532300397	1.355642649843
3	4935	5933.124224757516	2.422089993065
3	4940	5961.661214087971	2.293782849292
3	4945	5962.87544434878	1.157735248905
3	4950	5967.578369701862	0.044377287401
3	4958	5972.883102973862	0.393346319285
3	4960	5973.611968877584	2.963958086012
3	4968	5981.240652144594	1.060779547556
3	4976	5993.910562165682	7.540430601867
3	4978	5995.047054853496	15.142218531238
3	4986	6000.034532280192	0.735843331941
3	4988	6000.59550499413	9.301352302576
3	4993	6011.525763804647	16.055159845946
3	4995	6011.593343492497	0.864185802694
3	5000	6016.009949061319	1.305695659647
