version 2
run General-2-20170504-11:37:58-97068
attr configname General
attr datetime 20170504-11:37:58
attr experiment General
attr inifile omnetpp.ini
attr iterationvars ""
attr iterationvars2 $repetition=2
attr measurement ""
attr network Toll_road
attr processid 97068
attr repetition 2
attr replication #2
attr resultdir results
attr runnumber 2
attr seedset 2
param **.numBooths 3
param **.queue[*].serviceTime exponential(5.11s)
param **.source.interArrivalTime exponential(5.854s)
param **.source.numJobs 1000

vector 1  Toll_road.queue[1]  jobsProcessed:vector  ETV
attr interpolationmode  none
attr source  queueingTime
attr title  "jobs processed, vector"
vector 2  Toll_road.queue[2]  jobsProcessed:vector  ETV
attr interpolationmode  none
attr source  queueingTime
attr title  "jobs processed, vector"
vector 3  Toll_road.sink  lifeTime:vector  ETV
attr interpolationmode  none
attr title  "lifetime of arrived jobs, vector"
attr unit  s
vector 0  Toll_road.queue[0]  jobsProcessed:vector  ETV
attr interpolationmode  none
attr source  queueingTime
attr title  "jobs processed, vector"
0	22	14.501691439807	0
0	59	37.941349585389	0
0	63	41.425303831624	2.309880087584
0	118	85.25254413704	0
0	128	118.584009632037	0
0	133	123.485859251229	0
0	146	143.831159077233	0
0	157	158.947826720128	10.517068294918
0	188	212.121304785447	0
0	196	216.456554408935	0
0	226	237.323795945937	4.495759860509
0	228	241.789494853853	6.065071834069
0	246	252.552169961247	16.751043114742
0	268	270.992198355538	13.773179524567
0	274	272.488022843353	0
0	309	309.693997639148	0
0	324	333.847989477421	0
0	335	340.592382102672	6.505352158547
0	352	348.703548468799	0
0	359	350.104009579836	0
0	386	370.424652671013	0
0	406	393.247203555434	10.985996409121
0	408	393.51732346292	9.709960592796
0	471	446.705933027609	0
0	488	481.767254762146	0
0	501	502.321155571119	0
0	541	555.961285527221	0
0	558	580.893487114862	0
0	570	590.322181068037	6.869192157326
0	583	607.056716832192	0
0	638	689.931808397545	0
0	661	714.960347594131	0
0	701	750.784679400765	0
0	714	760.656418440896	3.51505465929
0	763	808.975352888274	0
0	768	830.240294050709	0
0	772	833.062846362625	1.524320293958
0	778	837.548808157156	0
0	799	863.130628060887	0
0	807	872.336818781497	1.583201867083
0	815	881.489006011061	5.239249360285
0	821	884.119185228849	0
0	826	894.36115112123	0
0	848	909.97166139077	0
0	863	928.826162075932	0
0	878	942.991824310197	0
0	898	963.072828342988	0
0	928	1006.563404203188	0
0	935	1022.081335696047	13.108800137593
0	955	1028.31572483236	7.492726985162
0	979	1048.005318776679	0
0	986	1053.430201733222	0
0	991	1057.083199375108	0
0	1000	1062.429989215915	2.891499078676
0	1079	1157.779279187835	0
0	1093	1190.662974453008	0
0	1106	1206.62647521826	0
0	1123	1214.291572029064	0
0	1146	1247.166863851542	0
0	1155	1255.03917150927	5.788334730002
0	1183	1264.226278950905	5.755992786973
0	1193	1268.454782616087	3.503704435039
0	1221	1286.813655665829	0
0	1231	1293.860655840811	0.388698244194
0	1242	1297.027192436693	0
0	1257	1314.425527128899	0
0	1288	1399.227090939414	0
0	1293	1407.128685184707	0
0	1298	1413.163807822714	0
0	1312	1435.121551369344	20.913177112395
0	1317	1442.091532912192	2.564625579189
0	1331	1447.903290772522	4.889749416674
0	1361	1470.994111998869	0
0	1370	1480.865156954371	4.469716971363
0	1372	1480.882229555581	0.906021534645
0	1377	1489.725008352353	2.882729568778
0	1390	1505.167162832739	0.167269085692
0	1398	1507.748112775308	0
0	1403	1512.095371623832	0
0	1410	1516.407781279743	2.312521631718
0	1412	1517.454249420941	1.725517361541
0	1421	1544.297141956539	0
0	1425	1544.979412362483	0.605843221826
0	1438	1560.169781558363	0
0	1479	1606.85564555646	0
0	1486	1608.67067922793	0
0	1492	1618.095168831219	6.980271848937
0	1498	1626.142300976466	0
0	1514	1654.99365418222	0
0	1536	1687.906214989497	0
0	1553	1694.220522129971	2.371253848467
0	1555	1695.099550074074	1.653229697976
0	1573	1706.191916825758	0
0	1584	1728.025843313195	0
0	1589	1728.660533668952	0
0	1601	1730.927897336424	0
0	1608	1748.913906653165	0
0	1613	1752.730136495446	0
0	1628	1768.509010947549	0
0	1632	1770.470084277918	1.098881615173
0	1649	1778.442855234735	0
0	1678	1825.049732729533	0
0	1687	1829.421128495486	4.211488550548
0	1698	1837.625746292745	8.020434683299
0	1702	1843.415519858189	11.208047110595
0	1716	1851.690750457536	0
0	1766	1904.32122981197	0
0	1773	1924.353686004306	0
0	1785	1930.699822866984	3.608810082045
0	1787	1934.824455219741	4.900653959405
0	1798	1946.680488133502	0
0	1808	1957.748862310816	0
0	1818	1969.307478368772	2.716950641216
0	1859	2022.592447918116	0
0	1933	2085.379614184924	0
0	1973	2120.19594841318	0
0	1993	2164.872441263442	0
0	2003	2176.033794781391	4.524687129654
0	2005	2176.197068871937	0.315153474014
0	2024	2198.984715709702	0
0	2031	2208.264113569057	0.608760933625
0	2067	2230.974734169576	22.578039386019
0	2076	2235.115738308401	0
0	2083	2240.543669856766	0
0	2091	2252.819680579247	0
0	2106	2277.724673534251	0
0	2131	2304.571641264323	0
0	2158	2319.487820249082	0
0	2163	2324.189652405311	0
0	2173	2350.383539914444	0
0	2189	2385.683129523341	0
0	2211	2404.088400659671	0
0	2223	2451.125829862252	0
0	2233	2468.32165268929	0
0	2247	2482.755474440431	8.418609187534
0	2253	2495.653511583399	0
0	2258	2512.267075424869	0
0	2278	2524.069075793744	9.182971683907
0	2280	2524.425380357815	5.693125485437
0	2282	2525.437631071449	6.1693005108
0	2296	2562.328370349714	0
0	2306	2570.935682212197	0
0	2326	2598.428591545294	0
0	2338	2638.344414897451	0
0	2348	2648.951796941811	0
0	2364	2659.055980630779	0
0	2371	2663.170862431937	0
0	2381	2669.61756533745	5.900869317852
0	2391	2672.898322576362	7.271130479347
0	2406	2682.70473690877	0
0	2426	2711.026133798699	0
0	2436	2714.349489432914	0
0	2448	2732.462780418063	0
0	2462	2742.499770465072	5.855881752103
0	2476	2756.580936624267	0
0	2483	2782.863338065645	0
0	2533	2864.782637461571	0
0	2544	2875.236716261839	0
0	2559	2888.037461325618	0
0	2569	2892.695995426375	0
0	2580	2896.260066239321	2.281247871674
0	2616	2917.818270500152	0
0	2626	2925.045693160797	0
0	2633	2931.29167893557	0
0	2643	2963.073789703552	0
0	2648	2970.764230749206	0
0	2681	2991.877742653384	20.328073817455
0	2688	2998.234271773953	9.041557412984
0	2713	3070.85681486728	0
0	2758	3126.284992948327	0
0	2771	3153.027792731205	0
0	2779	3157.485036672932	0
0	2791	3166.83323256876	0
0	2798	3168.991064012225	0
0	2811	3182.64209341957	0
0	2821	3189.212026756393	0
0	2841	3220.162466754641	0
0	2859	3244.208015303316	0
0	2869	3251.585267122668	0
0	2874	3253.480830663917	0
0	2891	3272.214046804485	0
0	2911	3288.167799689245	0
0	2923	3293.473098672675	0
0	2959	3318.647848703748	0
0	2982	3339.551148259941	2.999315140429
0	2993	3346.865513922091	0
0	3008	3378.589449261673	0
0	3023	3394.787318488134	0
0	3071	3465.527665061863	0
0	3094	3487.868743230229	0
0	3146	3529.125826546947	0
0	3158	3542.047989548838	0
0	3179	3559.943386924573	10.535976072268
0	3186	3563.251438671744	10.599426055673
0	3195	3568.330632270772	15.499376440774
0	3200	3570.506375910833	14.203092139633
0	3208	3580.190059986266	0
0	3218	3603.738950541368	0
0	3238	3642.283581947867	0
0	3246	3645.887110461805	0
0	3265	3655.329057618681	0
0	3293	3685.027166782754	0
0	3298	3694.679272318623	0
0	3308	3704.000867216857	0
0	3324	3749.042244935512	0
0	3333	3756.35092349171	0
0	3357	3791.709139398452	0
0	3362	3805.927398548291	0
0	3374	3819.707263868733	0
0	3386	3832.344653535234	0
0	3453	3958.369351933958	0
0	3468	3980.832483942904	0
0	3473	3995.117415030788	0
0	3501	4026.05688096214	0
0	3511	4028.740217432257	0
0	3523	4051.446861832143	0
0	3546	4077.648308514908	0
0	3552	4078.121494620288	0.358585544493
0	3566	4096.720465367406	0
0	3586	4132.809575608885	0
0	3608	4160.207107817338	0
0	3636	4199.498692055298	0
0	3653	4227.604923347139	0
0	3665	4236.442659489483	2.213368890101
0	3691	4261.152507208586	0
0	3697	4268.663338614539	4.485434370715
0	3702	4280.174303243752	2.695213526426
0	3726	4322.875309462495	0
0	3731	4333.421883815099	0
0	3743	4368.40607116557	0
0	3748	4376.374988452326	0
0	3776	4393.250604595165	0
0	3791	4428.465308378572	0
0	3807	4442.348753987885	0
0	3816	4445.883868202452	0
0	3822	4472.519148542076	2.052919768391
0	3828	4475.251308144687	0
0	3838	4489.697372815429	0
0	3878	4566.850700521385	0
0	3888	4573.141804483111	2.966382443229
0	3890	4573.628189805158	3.355587517427
0	3901	4591.637290401398	0
0	3907	4599.65480473523	6.2528867521
0	3918	4624.936391453353	0
0	3937	4669.47533314297	0
0	3953	4681.380664769294	0
0	3984	4698.777088383114	0
0	4000	4710.96444474757	4.725442598064
0	4006	4714.515617049251	0
0	4018	4730.646504277345	0
0	4051	4780.689563329105	0
0	4065	4793.784056647035	8.199262346993
0	4067	4795.484804749639	7.998632630751
0	4075	4797.609190955081	1.274226173478
0	4103	4826.120524045093	0
0	4119	4848.004023963601	0
0	4143	4861.889310076392	0
0	4173	4905.948123632835	0
0	4178	4923.712649020054	0
0	4188	4932.07192201886	0
0	4197	4952.614958514828	7.659641692756
0	4202	4953.342784381242	0.711837849466
0	4214	4961.541741174591	0
0	4231	4990.602485788025	0
0	4246	5002.528356682086	0
0	4253	5018.177281561684	0
0	4296	5089.003309784421	0
0	4308	5107.204640033526	0
0	4313	5111.205577737926	0
0	4322	5132.608428317072	19.525721603812
0	4343	5150.939937004388	0
0	4358	5184.031539001667	0
0	4367	5201.138529761507	16.646484372306
0	4386	5217.959613267721	0
0	4402	5227.408860811276	7.153049959195
0	4408	5236.884119507816	0
0	4416	5248.383322522996	0
0	4436	5255.089885273235	0
0	4448	5264.470802255404	0.400650761721
0	4493	5343.080741285699	0
0	4513	5363.374812325866	0
0	4535	5379.767151298819	15.698228153
0	4537	5382.608708190863	4.624295495624
0	4553	5394.444675555886	0
0	4598	5459.774536125333	0
0	4603	5473.865964687584	0
0	4625	5486.007349971718	11.351233139556
0	4627	5487.349416267118	10.251476156721
0	4632	5492.182827860963	1.564871432832
0	4649	5511.54321116892	0
0	4656	5517.760215480966	0
0	4676	5526.543259855513	4.985358611357
0	4683	5528.59582057324	2.821424073735
0	4688	5530.875817598229	4.905723931834
0	4696	5535.397626112028	0
0	4705	5538.253898411742	0.534470912195
0	4721	5564.07672263733	0
0	4776	5635.226759916742	0
0	4793	5651.648686049372	0
0	4807	5663.513580289733	0
0	4821	5680.143231889945	0
0	4843	5714.196810416133	0
0	4853	5718.622648977665	3.349633102198
0	4855	5721.513962798558	5.918748856273
0	4869	5729.350351146408	0
0	4896	5769.360258286674	0
0	4911	5779.730365181302	0
0	4925	5786.266049670589	1.381064338795
0	4930	5796.80246764549	10.66483376836
0	4932	5797.508030744732	9.195037554797
0	4945	5808.92077025421	10.337869521907
0	4968	5836.457118523748	0
0	4981	5853.792178549328	0
1	3	3.352538907278	0
1	23	17.055097218211	4.641811308073
1	44	30.828752627881	0
1	76	48.685030750347	12.731074023051
1	81	51.025562992452	5.125330789752
1	88	56.251977386299	6.37471491855
1	93	59.847760963639	8.651446165019
1	100	64.699232352754	7.285465451992
1	108	73.020393059042	0
1	138	133.182424822251	0
1	154	151.101625593439	0
1	163	162.240652701647	0
1	178	195.514962923072	0
1	191	213.206617742899	0
1	206	224.001398723518	0
1	211	228.10610783379	0
1	234	245.147307644252	0
1	241	250.693227745563	1.299049680587
1	248	253.404579441212	0.872759961679
1	259	257.919496967744	0
1	277	275.644179199935	0
1	288	281.985091603767	0
1	293	294.478275611294	0
1	298	299.486705076913	0
1	306	308.233212787476	0
1	321	329.29975226339	0
1	334	339.806417558707	0
1	342	343.239860798084	2.295136479996
1	367	357.041211965139	0
1	391	381.342715296806	0
1	405	390.873100178824	0
1	418	401.474988363945	0
1	423	407.189854715203	0
1	427	408.522602536069	1.146905677392
1	438	412.533149476807	0
1	443	428.537504397922	0
1	463	443.210169793938	0
1	467	444.820820086925	1.43011925085
1	493	493.853255582871	0
1	498	502.067351838824	0
1	523	524.507738838155	0
1	527	527.863652419063	0.995123775655
1	532	538.952577008133	5.465892434075
1	537	553.933608473849	9.026948312104
1	564	585.402607284092	0
1	568	587.914525834392	1.199469069174
1	576	592.506703998074	0
1	593	638.091063344137	0
1	603	642.969538418375	0
1	607	652.409089874131	2.813319607831
1	612	658.437187399127	2.398529580479
1	623	677.638071090459	0
1	631	680.730455841806	0
1	685	744.499671916996	0
1	696	749.842402717143	0
1	707	753.895334912161	0
1	716	761.671217741565	3.348912870129
1	743	799.256744395101	0
1	747	800.761078133134	0.373612353107
1	758	806.916468718365	0
1	783	848.720178342118	0
1	792	859.783934575803	3.385668490434
1	814	878.91264717423	0
1	840	905.936468450333	2.128311375845
1	868	932.75990652898	0
1	873	939.632275329899	0
1	886	957.48138008819	0
1	890	958.602289946941	0.530909827453
1	901	963.909390472338	0
1	918	988.984373791105	0
1	923	1000.106913128065	0
1	939	1022.268393592753	0
1	946	1023.721789471587	0.637999257868
1	966	1040.679136919586	0
1	973	1043.605508464371	0
1	999	1061.826613753474	0
1	1013	1085.422669334152	0
1	1018	1091.477483142695	0
1	1026	1101.828026409443	0
1	1033	1106.163462727882	0
1	1038	1112.334160457153	0
1	1043	1123.370125348891	0
1	1053	1128.805400562338	5.123320652124
1	1063	1141.274992799177	0
1	1068	1147.115432308401	0
1	1096	1191.280522957876	0
1	1103	1204.989454708615	0
1	1115	1210.232467501857	1.017480547643
1	1128	1216.606234252822	0
1	1132	1220.041551860076	2.935230910157
1	1138	1236.626358023839	0
1	1142	1246.745849514601	6.515694285419
1	1154	1251.343930415781	0
1	1169	1259.291345999218	0
1	1181	1261.774729156596	0.96333472238
1	1188	1266.784030180868	5.759310385276
1	1195	1269.915352119955	3.118286214967
1	1208	1276.8956236573	1.901641855979
1	1235	1294.01536981611	0
1	1245	1299.891808677397	0
1	1249	1301.742778599341	1.546170399106
1	1304	1418.974203030493	0
1	1321	1442.303868893384	0
1	1341	1452.282446308175	7.903972582276
1	1353	1455.191847355181	2.309381128559
1	1381	1501.98919706001	0
1	1431	1552.787495953169	0
1	1451	1572.200295296515	0
1	1466	1600.479528825265	0
1	1471	1603.884285185554	0
1	1503	1648.642720598479	0
1	1508	1651.590146695827	0
1	1517	1658.917416136582	7.15520432421
1	1539	1690.043884696137	0
1	1546	1692.422798852715	2.128430275123
1	1561	1699.55479036173	0
1	1581	1727.597926997758	0
1	1623	1761.418608216662	0
1	1641	1774.544145038707	0
1	1646	1775.17061312483	0
1	1654	1779.526210397654	0
1	1668	1810.239241694927	0
1	1673	1812.856916446463	0
1	1684	1826.161906684584	0
1	1697	1836.146292347957	0
1	1706	1848.166416241373	0
1	1713	1850.261561637117	0
1	1720	1853.303167792595	0.019144418167
1	1726	1856.917080281159	0
1	1733	1863.026733318615	0
1	1740	1870.020604972327	6.961160100958
1	1751	1890.063616940227	0
1	1756	1896.567099030768	0
1	1761	1900.133547031734	0
1	1776	1924.995659401405	0
1	1803	1952.706594631102	0
1	1811	1960.552633084366	0
1	1820	1970.224389944969	5.926354842808
1	1838	1994.691210008765	8.992667382682
1	1845	1999.108924293513	12.730771351498
1	1847	2003.162071395659	16.024938513001
1	1856	2022.2731901147	0
1	1872	2031.212145526602	1.126365199216
1	1898	2044.912465597439	0
1	1902	2048.816660907666	2.624556553376
1	1908	2050.0610686652	0
1	1916	2067.182547939182	0
1	1928	2078.139779284748	0
1	1943	2095.705342405928	0
1	1950	2098.686638052895	1.466809722904
1	1958	2105.687737148786	0
1	1962	2109.318902998475	2.124478723058
1	1983	2140.384356556255	0
1	1987	2145.232253586594	1.139401591265
1	2009	2180.051657736257	0
1	2038	2209.913769467296	0
1	2048	2216.412759926551	0
1	2055	2222.735176772854	0
1	2088	2252.748704332045	0
1	2109	2282.184797566748	0
1	2121	2289.588038630589	0
1	2136	2306.342356824196	0
1	2144	2308.992414092137	0
1	2149	2314.132627637516	0
1	2178	2364.729746908482	0
1	2183	2379.937492795768	0
1	2190	2391.839995180217	11.145919204924
1	2218	2433.371029823453	0
1	2226	2459.157015129689	0
1	2236	2472.038336016579	0
1	2264	2517.741057780433	0
1	2275	2519.727880768989	0
1	2288	2536.422276178081	0
1	2303	2565.949491504024	0
1	2315	2585.961995726286	4.227918585592
1	2323	2596.84462040785	0
1	2343	2647.32068036732	0
1	2351	2649.405857935684	0
1	2397	2675.876137373876	0
1	2418	2696.54811130024	0
1	2451	2733.213217800029	0
1	2459	2738.696954816212	0
1	2469	2746.952463536521	0
1	2486	2783.289789105972	0
1	2503	2804.620926615088	0
1	2510	2811.137608492268	4.622050558803
1	2512	2819.964698811605	9.895513036237
1	2518	2832.470997415639	0
1	2528	2851.59021458157	0
1	2538	2869.942054098323	0
1	2552	2882.877131414997	8.318353999691
1	2562	2888.163633301082	2.815949696908
1	2570	2893.13745830041	1.366920313184
1	2578	2896.189980508158	0.137402549514
1	2593	2902.901447045682	4.094584769156
1	2595	2903.242603936694	2.755871184228
1	2600	2905.376529956048	1.043862562776
1	2611	2914.064174264809	0
1	2638	2956.61440232876	0
1	2654	2978.099383620289	0
1	2685	2993.094512694892	0
1	2692	2999.048682770717	0
1	2708	3046.048186537821	0
1	2718	3075.254421320808	0
1	2723	3081.52562771653	0
1	2730	3086.801834190366	3.177774294776
1	2737	3098.593225478181	0.948742128298
1	2763	3131.527374457541	0
1	2768	3152.465651962314	0
1	2780	3157.93700816924	1.92681565636
1	2788	3163.096140894696	0
1	2801	3177.983798762045	0
1	2807	3181.474137483781	2.511592948754
1	2815	3186.563079138412	1.664385509638
1	2828	3203.045092165885	0
1	2835	3215.602079967263	12.040998337921
1	2851	3237.967162747989	0
1	2855	3242.972395227292	3.6763249577
1	2878	3254.907701259733	10.211086913415
1	2885	3259.912213194361	5.043895492392
1	2905	3282.762704334208	7.907781725316
1	2928	3296.990754671871	0
1	2933	3301.923348387069	0
1	2940	3305.629211352918	1.259358667726
1	2950	3313.173365505773	2.999798205005
1	2972	3324.506622046712	0
1	3013	3381.680188169416	0
1	3028	3409.817169958133	0
1	3043	3441.410050661866	0
1	3048	3442.560045388199	0
1	3059	3456.458057605292	0
1	3068	3463.15486666304	0
1	3076	3467.985158093799	0
1	3095	3487.869134994066	19.838822928314
1	3106	3494.231935303762	0
1	3127	3508.217391064975	0
1	3138	3519.844774921354	0
1	3143	3524.110468079446	0
1	3151	3533.934398011733	0
1	3176	3556.412826693203	0
1	3183	3561.4891245497	0
1	3190	3565.543808232464	0
1	3213	3602.963636719153	0
1	3228	3618.237352004258	0
1	3260	3653.204029836869	0
1	3272	3662.205131263713	0
1	3347	3776.314142347798	0
1	3391	3835.642559139667	0
1	3396	3838.103042351259	0
1	3405	3848.75882521054	7.196966690538
1	3423	3896.090498164675	0
1	3428	3906.746229424342	0
1	3432	3911.014972558881	2.539537542872
1	3442	3928.142931963055	10.271058260906
1	3458	3963.489188778121	0
1	3478	4001.669316619187	0
1	3490	4015.142477178834	12.057856368748
1	3492	4018.370455289587	12.737838051588
1	3497	4024.94968076334	4.483768664531
1	3518	4043.009671398306	0
1	3531	4060.718118637536	0
1	3537	4066.166985231113	3.676065302918
1	3558	4078.607967855743	0
1	3576	4111.133597473011	0
1	3589	4136.352137616621	0
1	3611	4160.598361098176	0
1	3628	4193.713781126596	0
1	3686	4248.62458415752	0
1	3706	4289.536769250191	0
1	3738	4358.997148029245	0
1	3771	4388.042627899709	0
1	3783	4406.135545260936	0
1	3804	4437.236239551158	0
1	3833	4483.681241685591	0
1	3843	4494.71710939998	0
1	3853	4508.454068816159	0
1	3858	4524.465750115056	0
1	3865	4537.816477305859	7.892996731436
1	3867	4545.708043752557	10.981580516892
1	3881	4569.751628709344	0
1	3913	4604.385683082161	0
1	3923	4634.402617360055	0
1	3928	4651.892750087502	0
1	3954	4681.813414504487	27.69880236003
1	3956	4682.12436547889	23.059348472798
1	3966	4689.434960757061	16.448609010233
1	3971	4689.891875150825	0.886646499523
1	3999	4708.951704359735	0
1	4012	4728.38757384264	13.075615734349
1	4023	4743.213213092361	0
1	4028	4747.622471963991	0
1	4033	4758.508692187299	0
1	4042	4771.854686810897	10.385863804901
1	4048	4780.580778218876	0
1	4062	4790.183564728283	0
1	4079	4797.760716968583	0
1	4088	4810.171670115394	0
1	4096	4817.42072883412	0
1	4108	4833.703823423364	0
1	4113	4844.981507945311	0
1	4128	4849.68784619693	1.748457212621
1	4138	4854.832520796054	0
1	4148	4868.390559520557	0
1	4153	4882.190231208796	0
1	4166	4897.642163363184	0
1	4208	4959.477209061418	0
1	4215	4969.129975335177	7.646023420937
1	4220	4976.697470732882	0.789488291536
1	4228	4989.537386743639	0
1	4261	5026.680315172761	0
1	4268	5042.611464517539	0
1	4273	5057.445072896133	0
1	4278	5060.802482875979	0
1	4293	5084.06772629506	0
1	4328	5133.942212046398	0
1	4333	5138.2098543935	0
1	4353	5171.029973996146	0
1	4373	5207.437341102223	0
1	4378	5208.709070279494	0
1	4383	5217.672103245066	0
1	4399	5224.556551558218	0
1	4441	5263.203025465859	0
1	4458	5268.586292225643	0.8677168145
1	4466	5280.644600722429	0
1	4476	5297.179221606045	0
1	4483	5308.144343546698	0
1	4488	5318.148353948335	0
1	4503	5353.732263031702	0
1	4527	5373.467909783471	0
1	4563	5399.202682872642	0
1	4568	5401.877149734916	0
1	4573	5409.950949474493	0
1	4583	5439.523620315857	0
1	4588	5448.94159666604	0
1	4622	5479.838647686205	0
1	4641	5501.497573691944	0
1	4646	5511.278950260166	0
1	4680	5526.906124024479	0
1	4692	5532.142523633848	3.509549951361
1	4700	5537.577486615619	2.010956505581
1	4713	5552.855814262538	0
1	4718	5562.656237483335	0
1	4726	5573.054990068756	0
1	4739	5582.797335555192	0
1	4753	5594.724671598093	0
1	4766	5625.63159013512	0
1	4801	5657.548984634994	0
1	4824	5680.364352037369	0
1	4859	5722.561316054397	0
1	4875	5732.982845218268	3.521762678397
1	4888	5758.807799830092	0
1	4893	5765.987034913621	0
1	4908	5778.848123595204	0
1	4915	5782.425571350569	1.812968781011
1	4944	5808.892310195782	0
1	4952	5816.340637354868	0.094014133703
1	4958	5829.209938838372	0
1	4962	5834.641174170699	1.159332588845
1	4978	5852.625669363671	0
1	4987	5858.546925652349	2.963388900239
1	4997	5873.924010848946	9.555541298199
2	6	4.550664701832	0
2	11	9.220739588344	0
2	19	13.7536838695	0
2	31	20.183421438966	0
2	37	23.866090931301	2.836530727644
2	45	33.697625824581	7.494205408027
2	53	37.293506197418	3.402642516456
2	69	44.431950012588	0
2	86	51.886556514545	4.529532946054
2	99	63.782074373157	0
2	111	74.057098820283	0
2	121	89.310325658279	0
2	143	141.955280289057	0
2	166	162.402101338944	0
2	172	173.603078841121	7.894518845825
2	183	204.944179271587	0
2	199	216.730259054216	0
2	219	235.691875667351	0
2	237	245.29882695862	0
2	264	260.119414739828	0
2	278	276.299810281292	10.084464223745
2	301	307.573524784015	0
2	314	314.943252584178	0
2	346	345.59203396884	0
2	368	359.658614075015	12.164300962842
2	373	361.363995413665	5.449754434889
2	375	362.999103274595	1.723599133981
2	383	370.268125762835	0
2	402	389.842205943779	0
2	433	411.9967140948	0
2	446	433.753807878612	0
2	451	434.151404588931	0
2	456	436.747895690111	0
2	476	450.035175350579	0
2	483	478.288609573705	0
2	508	503.522929262133	0
2	512	511.204400661212	0.475766617863
2	517	514.774860760883	1.313145040362
2	548	563.324978842172	0
2	552	572.303696716793	7.924035149504
2	588	618.502644070404	0
2	596	638.118427450713	0
2	618	672.618261813914	0
2	628	680.129602136417	0
2	641	694.860720135674	0
2	645	696.038125455112	0.725694672067
2	653	703.594160268391	0
2	658	713.11660523173	0
2	667	723.394151356624	5.090715429159
2	675	738.445569545653	11.884244932925
2	688	745.952496646539	11.945759901355
2	690	748.687642823282	7.373366865384
2	692	749.667213242162	8.11140494275
2	720	763.776697767028	10.128078900668
2	727	769.157259730062	2.834633842496
2	733	789.367340975844	0
2	737	796.456484484114	5.611318751247
2	753	804.01350085485	0
2	786	856.03413151258	0
2	796	862.592748640097	0
2	829	897.378857313068	0
2	839	904.255048448461	0
2	851	911.025723655845	0
2	858	921.22540373587	0
2	883	956.069936546352	0
2	904	964.698849847073	0
2	913	975.308831900805	0
2	942	1022.528684219476	0
2	954	1027.848184696647	0
2	963	1039.583526528302	0
2	976	1043.985824800631	0
2	1008	1075.099177099194	0
2	1021	1098.969094000782	0
2	1049	1123.696630078225	0
2	1057	1137.898446826422	10.23568315307
2	1073	1153.756875018822	0
2	1080	1161.397385230188	3.804277193088
2	1088	1174.745017583566	0
2	1111	1207.894788466478	0
2	1161	1256.664395507085	0
2	1172	1260.70054126431	0
2	1201	1270.800698087953	0
2	1213	1278.684649665941	2.331435515087
2	1217	1278.862869376672	1.6592952932
2	1260	1316.109108455038	28.31599616718
2	1262	1320.502159901565	28.197421792375
2	1268	1337.374583879551	0
2	1275	1344.235986145117	6.696691526852
2	1277	1346.488721960797	2.504792731032
2	1282	1363.397116775224	9.545564658083
2	1309	1423.414922590259	0
2	1330	1447.370257325976	0
2	1346	1452.922734583791	3.140241248313
2	1348	1453.792948213069	3.641046600714
2	1355	1456.711234195784	2.202685777517
2	1386	1504.602002517805	0
2	1416	1520.753723276387	0
2	1443	1565.237017314042	0
2	1448	1570.510082983718	0
2	1455	1579.553647858597	0.127165082941
2	1463	1598.704852898131	0
2	1475	1604.799922004992	0.608847982312
2	1523	1665.873253237486	0
2	1528	1675.876520137528	0
2	1533	1680.488375541995	0
2	1568	1704.58101574167	0
2	1578	1716.455698356151	0
2	1598	1730.669251626837	0
2	1616	1756.73261067041	0
2	1638	1772.972635890627	0
2	1663	1793.869283017994	0
2	1739	1866.414575995257	0
2	1747	1889.566816421073	19.317576192215
2	1793	1945.026853524373	0
2	1826	1979.994209884293	0
2	1842	1995.170456845086	0
2	1853	2017.855730206183	0
2	1866	2026.013959455585	0
2	1876	2031.379289859451	0
2	1880	2034.02892349813	2.420694650536
2	1888	2040.516656158676	0
2	1892	2043.729614157582	2.53121498681
2	1913	2053.47926200281	0
2	1922	2069.06634335475	0.310652837841
2	1936	2086.003619026357	0
2	1949	2097.368300870253	0
2	1968	2116.471471345485	0
2	1976	2120.208033239033	0
2	1999	2174.150635697303	0
2	2020	2197.596761104935	14.644631250866
2	2041	2212.041485496507	25.276507550035
2	2049	2219.071905884349	13.895424625472
2	2058	2228.180500862172	14.634820402803
2	2064	2229.65174605125	0
2	2071	2233.711748151586	0
2	2098	2265.710843510578	0
2	2103	2273.754015409474	0
2	2113	2285.683539983983	1.98330562219
2	2128	2303.639408309762	0
2	2141	2307.97026895482	0
2	2168	2336.134266083278	0
2	2194	2394.03779863041	0
2	2201	2400.873828315473	0
2	2207	2403.743633760918	2.78217091726
2	2242	2477.735774191919	0
2	2293	2560.026754082233	0
2	2311	2579.04504343487	0
2	2333	2610.439933189732	0
2	2358	2652.865682471963	0
2	2365	2660.322746368606	4.089103428829
2	2383	2669.698261429166	0.206575055128
2	2393	2675.404297046606	4.78668564644
2	2402	2680.685969448917	8.462730223272
2	2413	2693.361609852278	0
2	2423	2704.03189256628	0
2	2433	2714.022695418198	0
2	2443	2719.438551558537	0
2	2466	2746.075066856848	0
2	2491	2788.991431459498	0
2	2498	2796.880762978631	0
2	2523	2845.733184522616	0
2	2549	2879.192913780735	0
2	2586	2897.799149181274	0
2	2608	2911.887995950309	0
2	2623	2920.492775912616	0
2	2657	2978.340254416671	0
2	2669	2985.966592333219	5.902354873272
2	2671	2986.033468051244	3.666033561075
2	2676	2987.368695456986	4.95463045165
2	2693	2999.663432998571	12.563407572079
2	2703	3014.207118197017	0
2	2726	3082.552947998424	0
2	2741	3099.89986551675	0
2	2748	3102.01337140535	0
2	2753	3113.169172788326	0
2	2834	3208.93651206165	0
2	2848	3226.775586253517	0
2	2884	3256.024920978613	0
2	2899	3277.234552264002	0
2	2904	3282.602647284983	0
2	2916	3289.455658732284	0
2	2939	3305.532155112201	0
2	2949	3311.436907178978	0
2	2960	3318.801786069709	4.083431125478
2	2966	3321.520155886565	0
2	2973	3326.183334365042	3.314685229635
2	2988	3345.767644938725	0
2	2996	3353.263079048695	0
2	3003	3377.276732031161	0
2	3018	3384.297535889035	0
2	3031	3416.08918857396	0
2	3036	3419.036532342402	0
2	3053	3452.201943695659	0
2	3060	3458.080246132944	3.070379404765
2	3084	3470.075147408964	0
2	3089	3476.98693391923	0
2	3101	3488.26217434086	0
2	3116	3502.00350186218	6.564343266293
2	3123	3508.058974288641	11.982514172233
2	3130	3513.735047292603	13.966301270776
2	3132	3514.124643484979	7.147035301982
2	3170	3554.13201556858	0
2	3199	3569.05864622292	0
2	3221	3606.033428645488	0
2	3233	3623.14982163507	0
2	3243	3644.744186939675	0
2	3261	3655.311656757351	9.380152746711
2	3266	3660.017326624961	13.194853646293
2	3280	3663.488099026109	12.067000423599
2	3282	3664.148796585505	0.716989433898
2	3288	3671.110383575211	0
2	3303	3701.791964627773	0
2	3311	3704.14920266509	0
2	3318	3728.160855763383	0
2	3327	3749.877020239017	17.771898111756
2	3338	3768.692803198164	0
2	3351	3782.475179383887	11.337367590527
2	3366	3810.05941694616	33.983963137417
2	3370	3811.861414309774	31.242915007823
2	3375	3819.714309839551	13.518996973533
2	3383	3832.004742476633	0
2	3404	3845.454032449069	0
2	3413	3856.052843286387	0
2	3418	3869.980232308527	0
2	3436	3916.378069281628	0
2	3448	3948.828555869275	0
2	3461	3967.069190078968	0
2	3481	4002.396304037088	0
2	3508	4028.598133473718	0
2	3528	4055.781617353277	0
2	3541	4074.331911521268	0
2	3561	4083.122332116046	0
2	3571	4097.874031085378	0
2	3583	4130.379153407572	0
2	3596	4145.349767212408	0
2	3603	4156.408783532711	0
2	3616	4165.798881599046	0
2	3623	4187.243553246302	0
2	3633	4198.438845538793	0
2	3641	4206.07798393753	0
2	3648	4219.408814897763	0
2	3659	4234.572066771894	0
2	3663	4235.836977594471	1.058964195714
2	3672	4244.304492358592	7.565499578522
2	3677	4245.663425021987	0.44358805655
2	3683	4246.207622016153	0
2	3713	4299.791098132401	0
2	3717	4304.971739289167	2.669143862466
2	3722	4319.115004479353	1.653126270971
2	3751	4377.077898979544	0
2	3756	4378.188927965079	0
2	3763	4386.470635552454	0
2	3767	4387.204231940495	0.372838609201
2	3788	4427.755337169017	0
2	3798	4434.381515386956	0
2	3808	4444.136561975531	8.017896486849
2	3848	4500.223442110961	0
2	3873	4550.035970291324	0
2	3896	4589.154683614699	0
2	3945	4674.120876870719	0
2	3950	4679.609810362239	0
2	3962	4688.549746068872	0
2	3975	4693.832792846899	4.303853254744
2	3985	4700.091511978904	5.372138547833
2	3990	4700.936556649696	0.224970765118
2	4039	4767.085496963477	0
2	4071	4795.941612725229	0
2	4091	4814.518128642123	0
2	4122	4848.161498246465	0
2	4126	4848.361540181346	0.024699274696
2	4158	4892.221471254508	0
2	4163	4897.378252219966	0
2	4181	4925.747885084678	0
2	4191	4944.661202184912	0
2	4238	4997.022594090212	0
2	4242	5001.558935252831	4.186464703831
2	4258	5026.442923566917	0
2	4283	5068.351727807017	0
2	4287	5073.923565434496	0.283138056594
2	4303	5093.860244938619	0
2	4319	5123.997879334934	0
2	4338	5143.960086346557	0
2	4348	5158.062555400852	0
2	4364	5186.676275817142	0
2	4389	5219.269743946199	0
2	4411	5242.120029707852	0
2	4421	5250.63479136453	0
2	4427	5253.46600229799	2.169160602475
2	4433	5254.364975921916	0
2	4444	5263.300138976444	0
2	4454	5266.730447378993	0
2	4473	5292.227059044357	0
2	4496	5345.40118077889	0
2	4508	5357.604862306818	0
2	4519	5364.94994900644	0
2	4524	5367.598145649842	0
2	4541	5382.824014180073	0
2	4545	5385.832561025493	1.145031784192
2	4556	5395.03454951601	0
2	4578	5430.493272090582	0
2	4591	5449.253113439078	0
2	4609	5475.549171668844	0
2	4616	5477.922088274466	1.908063879904
2	4636	5493.492730339218	0
2	4661	5520.196528337457	0
2	4669	5524.043674856053	0
2	4731	5576.323704581272	0
2	4742	5587.585401434667	5.310181910618
2	4747	5591.192894529852	1.702599665429
2	4756	5597.025541783763	0
2	4763	5621.972763828389	0
2	4773	5635.199223249726	0
2	4783	5638.80910833818	0
2	4788	5646.872337606431	0
2	4798	5657.203462895963	0
2	4808	5664.127854872085	6.091461025106
2	4816	5674.105209373965	0
2	4833	5684.753267509423	0
2	4838	5711.862754080095	0
2	4852	5715.712504385918	0
2	4865	5729.281895649449	0.561502837815
2	4881	5737.848048477911	0
2	4901	5769.744336963188	0
2	4939	5804.598894947821	0
2	4971	5839.270852764362	0
2	4991	5859.308766636946	0
3	8	7.939112371088	3.388447669256
3	13	10.077892987324	0.85715339898
3	24	17.055097218211	13.702558310933
3	26	18.350537862293	3.848846422486
3	28	18.872263844217	5.118579974717
3	36	22.926157683189	10.512871773051
3	38	23.866090931301	3.682669492335
3	46	33.697625824581	12.668065620924
3	54	37.293506197418	11.090085780864
3	56	37.812239639178	3.921375958216
3	64	41.425303831624	3.483954246235
3	66	42.734480279346	3.619056535306
3	77	48.685030750347	17.856278122466
3	82	51.025562992452	15.071606265156
3	87	51.886556514545	7.454606501957
3	89	56.251977386299	10.351745183599
3	94	59.847760963639	9.97049849589
3	96	59.937208831886	12.580185263395
3	101	64.699232352754	13.502917554134
3	103	65.349470079292	7.93570317853
3	105	68.215053166052	4.432978792895
3	113	77.697374741002	3.640275920719
3	115	79.185525102666	6.165132043624
3	123	91.245844518229	1.93551885995
3	125	96.509472004986	11.256927867946
3	130	121.434484312143	2.850474680106
3	135	125.716136040441	2.230276789212
3	140	137.101886918196	3.919462095945
3	151	150.13373359108	8.178453302023
3	156	153.765668450071	2.664042856632
3	158	158.947826720128	15.116667642895
3	160	160.224007645348	11.793249220138
3	168	163.691511768101	1.450859066454
3	173	173.603078841121	11.200977502177
3	175	177.175939235054	11.467379239758
3	180	200.220475139159	4.705512216087
3	185	208.295794106725	3.351614835138
3	193	213.893235478207	1.77193069276
3	201	220.453562790977	3.723303736761
3	203	220.540441331643	7.333823588744
3	208	225.998815492074	1.997416768556
3	213	232.462265706933	4.356157873143
3	227	237.323795945937	20.867241537002
3	229	241.789494853853	8.961458768425
3	231	242.354230423984	6.662354756633
3	242	250.693227745563	5.545920101311
3	247	252.552169961247	16.827746941463
3	249	253.404579441212	4.010401376236
3	251	255.542685294571	3.010865815038
3	256	257.864077985658	12.565251027038
3	261	258.137675374286	0.218178406542
3	269	270.992198355538	35.191071509033
3	271	272.323698958717	15.104680127746
3	279	276.299810281292	16.180395541464
3	281	276.599261713158	0.955082513223
3	283	277.075297548297	4.587274704944
3	285	280.181344128919	13.965998071372
3	290	289.676227439057	7.69113583529
3	295	297.271870744309	2.793595133015
3	303	307.674923473493	8.18821839658
3	311	309.923244060672	2.349719276657
3	316	316.645088767946	8.41187598047
3	318	321.217987270439	11.523989631291
3	329	334.0910009239	4.79124866051
3	331	334.36220352122	19.418950937042
3	336	340.592382102672	6.744392625251
3	341	342.573035766729	8.486005822604
3	343	343.239860798084	3.433443239377
3	354	348.704180022971	0.000631554172
3	356	349.384002950264	8.439278632176
3	361	351.891497347091	1.787487767255
3	369	359.658614075015	14.066580106175
3	374	361.363995413665	13.869682301492
3	376	362.999103274595	7.084862295819
3	378	366.25694252195	4.981438381336
3	380	367.875347771594	10.834135806455
3	388	380.682213584016	10.414087821181
3	399	384.940305778849	3.597590482043
3	407	393.247203555434	22.822550884421
3	409	393.51732346292	11.256116316607
3	411	397.791256835632	6.918156656808
3	413	398.926205349699	15.118842479575
3	415	400.273472322496	10.431266378717
3	420	403.198333263043	1.723344899098
3	428	408.522602536069	1.332747820866
3	430	408.616825796221	1.241128937544
3	435	412.155466982679	0.158752887879
3	440	415.063912308507	2.5307628317
3	448	433.981078865077	0.227270986465
3	453	434.249351329087	0.097946740156
3	458	437.284969465031	8.747465067109
3	460	437.875572942173	1.127677252062
3	468	444.820820086925	1.610650292987
3	473	449.760355333725	6.36965449765
3	478	451.586869027354	4.880935999745
3	480	452.957337999445	2.922162648866
3	485	479.474103524847	1.185493951142
3	490	485.387686646805	3.620431884659
3	495	495.851744274174	1.998488691303
3	503	502.985251414411	0.917899575587
3	505	503.04508560202	0.723930030901
3	513	511.204400661212	7.681471399079
3	518	514.774860760883	4.046226717534
3	520	516.19857001594	2.736854295419
3	528	527.863652419063	3.355913580908
3	533	538.952577008133	12.084048364725
3	538	553.933608473849	20.446923899791
3	543	556.004640068375	0.043354541154
3	545	560.750775310154	15.844115148409
3	553	572.303696716793	8.978717874621
3	555	572.854242197636	8.474580630347
3	569	587.914525834392	2.5119185503
3	571	590.322181068037	9.428693953175
3	573	592.230472549611	5.515415784393
3	578	597.82638473395	14.373395823239
3	580	598.697718867202	6.191014869128
3	585	610.661288055919	3.604571223727
3	590	626.246853233913	7.744209163509
3	598	640.261781195726	2.170717851589
3	600	641.001749269326	2.883321818613
3	608	652.409089874131	9.439551455756
3	613	658.437187399127	8.841417132827
3	615	667.088027131661	11.049369313013
3	620	675.39219978116	2.773937967246
3	625	678.832934987466	1.194863897007
3	633	681.440654976656	1.311052840239
3	635	682.415218815836	1.68476297403
3	646	696.038125455112	1.177405319438
3	648	698.288858318996	8.357049921451
3	650	698.727401588822	3.414970805777
3	655	703.819443465937	0.225283197546
3	663	716.235761518106	1.275413923975
3	668	723.394151356624	10.277546124894
3	676	738.445569545653	20.142133618188
3	687	745.333068994701	0.833397077705
3	689	745.952496646539	19.391172033811
3	691	748.687642823282	14.680906078098
3	693	749.667213242162	8.352937284264
3	698	749.910495634567	0.068092917424
3	715	760.656418440896	9.871739040131
3	717	761.671217741565	7.775882829404
3	719	762.777095926332	5.635732144726
3	721	763.776697767028	22.220889467616
3	726	767.695665425452	9.373360554016
3	728	769.157259730062	15.508640863702
3	730	770.60185312997	4.279227242404
3	738	796.456484484114	7.08914350827
3	740	797.109944084206	6.264778351339
3	748	800.761078133134	1.504333738033
3	750	801.447988887453	1.060523107426
3	755	806.51081439389	2.49731353904
3	760	807.903976645528	0.987507927163
3	765	810.393466021051	1.418113132777
3	773	833.062846362625	2.822552311916
3	775	833.530078137237	1.99155206857
3	780	839.643470987182	2.094662830026
3	791	856.738980528459	0.704849015879
3	793	859.783934575803	11.063756233685
3	801	866.775788657599	4.183040017502
3	806	870.770691056211	14.372424970842
3	808	872.336818781497	9.20619072061
3	816	881.489006011061	10.735389096647
3	818	883.816751142229	7.566994491453
3	823	890.879809117387	6.760623888538
3	831	897.474431773926	0.095574460858
3	836	904.133112014228	9.771960892998
3	841	905.936468450333	27.023821276103
3	843	906.217385219738	2.40922814525
3	845	906.481677985598	2.226629537137
3	853	911.703486171327	1.731824780557
3	855	914.847470949913	3.821747294068
3	860	922.392710103052	1.167306367182
3	865	930.369783535534	1.543621459602
3	870	934.227030900818	1.467124371838
3	875	940.351423618486	0.719148288587
3	880	943.142991409382	0.151167099185
3	891	958.602289946941	1.120909858751
3	893	960.97361218324	2.902232063752
3	895	961.883214761112	5.81327821476
3	906	965.12428128301	2.051452940022
3	908	965.388194280954	1.478803808616
3	910	967.421247352286	2.722397505213
3	915	977.041966184528	1.733134283723
3	920	990.323569903913	1.339196112808
3	925	1003.32552695901	3.218613830945
3	936	1022.081335696047	15.517931492859
3	947	1023.721789471587	1.453395878834
3	949	1025.982539512541	2.898749298822
3	951	1026.200153501635	3.671469282159
3	956	1028.31572483236	19.343189273906
3	958	1029.347119388376	1.498934691729
3	960	1035.378578033679	14.555580186481
3	968	1041.745513635075	2.161987106773
3	970	1042.171362110753	1.492225191167
3	981	1050.119077834403	2.113759057724
3	983	1051.111870130926	7.506361666555
3	988	1056.166997716751	2.736795983529
3	993	1057.96542186258	13.979597061949
3	1001	1062.429989215915	5.346789840807
3	1003	1063.066434777261	3.527944640022
3	1005	1070.448293261283	8.621679507809
3	1010	1080.49867106334	5.399493964146
3	1015	1087.33014377664	1.907474442488
3	1023	1101.388564731413	9.911081588718
3	1028	1102.449194325011	3.480100324229
3	1030	1103.836904075651	2.008877666208
3	1035	1106.701655909108	0.538193181226
3	1040	1121.734642518481	9.400482061328
3	1054	1128.805400562338	5.435275213447
3	1056	1130.525840651198	6.843760740984
3	1058	1137.898446826422	14.201816748197
3	1060	1139.334508927589	11.671745254237
3	1065	1144.608508518203	3.333515719026
3	1070	1149.182965947412	2.067533639011
3	1081	1161.397385230188	7.640510211366
3	1083	1164.256743364659	6.663635327559
3	1085	1165.399883140111	7.620603952276
3	1090	1180.991923847391	6.246906263825
3	1098	1197.171784373723	6.508809920715
3	1100	1200.109216689075	8.828693731199
3	1108	1206.957932188214	0.331456969954
3	1116	1210.232467501857	5.243012793242
3	1118	1212.81565705776	3.600670103546
3	1120	1214.276882741944	6.382094275466
3	1125	1215.563109066738	1.271537037674
3	1133	1220.041551860076	3.435317607254
3	1135	1220.557796042766	3.451475092847
3	1143	1246.745849514601	10.119491490762
3	1148	1247.515149417866	7.284994188684
3	1156	1255.03917150927	7.872307657728
3	1158	1255.690147680353	4.346217264572
3	1163	1258.125834449162	1.461438942077
3	1180	1261.191666228368	0.491124964058
3	1182	1261.774729156596	2.483383157378
3	1184	1264.226278950905	14.975442171637
3	1189	1266.784030180868	5.972635746652
3	1194	1268.454782616087	9.984496452155
3	1196	1269.915352119955	8.890632324363
3	1198	1270.282891922913	5.331813741865
3	1209	1276.8956236573	10.098557752312
3	1214	1278.684649665941	7.883951577988
3	1216	1278.756305904217	3.762324102896
3	1218	1278.862869376672	2.509655225818
3	1232	1293.860655840811	7.047000174982
3	1237	1294.370288482782	0.354918666672
3	1239	1296.241327950011	2.769370353394
3	1250	1301.742778599341	1.850969921944
3	1252	1305.124333029227	4.927724828992
3	1254	1306.273275061938	9.246082625245
3	1259	1316.065390733248	1.639863604349
3	1261	1316.109108455038	38.905534371566
3	1263	1320.502159901565	32.709047613707
3	1265	1322.638208272244	30.333470163054
3	1276	1344.235986145117	6.861402265566
3	1278	1346.488721960797	8.949427342532
3	1283	1363.397116775224	19.413187545459
3	1285	1366.561064612082	12.709512494941
3	1290	1400.396450659338	1.169359719924
3	1295	1411.133746717665	4.005061532958
3	1306	1419.208240761159	0.234037730666
3	1311	1424.262661652034	0.847739061775
3	1313	1435.121551369344	21.95774354663
3	1318	1442.091532912192	27.883158655243
3	1332	1447.903290772522	8.376383439519
3	1334	1448.56836684975	5.554825493902
3	1342	1452.282446308175	9.978577414791
3	1347	1452.922734583791	5.552477257815
3	1349	1453.792948213069	4.010454877591
3	1354	1455.191847355181	10.813373629282
3	1356	1456.711234195784	6.559332583429
3	1358	1459.02245537671	6.139989150088
3	1363	1471.121733743489	16.613185325222
3	1371	1480.865156954371	9.871044955502
3	1373	1480.882229555581	4.486789572573
3	1378	1489.725008352353	9.748800331417
3	1383	1502.182319505027	0.193122445017
3	1391	1505.167162832739	18.324884049164
3	1393	1505.708886084043	0.708992336996
3	1395	1506.552363677016	1.950361159211
3	1400	1510.666671895721	2.918559120413
3	1411	1516.407781279743	4.312409655911
3	1413	1517.454249420941	3.358989772916
3	1418	1530.995777603006	15.267045543606
3	1426	1544.979412362483	0.682270405944
3	1428	1550.151501158157	5.7779320175
3	1433	1553.991552096382	33.237828819995
3	1435	1555.736927161651	2.949431208482
3	1440	1560.317577245293	0.14779568693
3	1445	1569.221509328166	3.984492014124
3	1456	1579.553647858597	9.043564874879
3	1458	1579.732113765488	7.531818468973
3	1460	1592.060673141407	12.634190365751
3	1468	1603.65896741941	3.179438594145
3	1476	1604.799922004992	6.095069106861
3	1481	1606.867556164437	2.676482141757
3	1483	1608.020727764572	1.165082208112
3	1491	1612.23051919095	8.346234005396
3	1493	1618.095168831219	9.424489603289
3	1495	1623.667788634652	12.55289165237
3	1500	1628.876153077898	2.733852101432
3	1505	1649.582892576625	0.940171978146
3	1516	1656.11491996978	1.12126578756
3	1518	1658.917416136582	7.327269440755
3	1520	1662.896243878815	11.134032066443
3	1525	1666.25688226666	0.383629029174
3	1530	1678.692325943519	2.815805805991
3	1547	1692.422798852715	2.378914156578
3	1549	1693.125207693948	2.830839116356
3	1554	1694.220522129971	6.314307140474
3	1556	1695.099550074074	3.25028179257
3	1558	1696.900235808046	16.411860266051
3	1563	1703.654051942667	10.207731566569
3	1565	1703.823254849382	4.268464487652
3	1570	1704.6525628268	0.07154708513
3	1575	1714.124649168785	7.932732343027
3	1586	1728.105043094943	0.079199781748
3	1591	1729.319013870836	1.721086873078
3	1593	1730.025360524183	13.569662168032
3	1595	1730.552207439809	1.891673770857
3	1603	1731.043919255575	0.374667628738
3	1605	1733.51620837311	2.588311036686
3	1610	1749.572019594541	0.658112941376
3	1618	1760.694213145147	3.961602474737
3	1620	1761.360219714565	8.630083219119
3	1625	1762.546722080467	1.128113863805
3	1633	1770.470084277918	1.961073330369
3	1635	1771.222771765933	1.851569103188
3	1643	1775.010685045946	0.466540007239
3	1651	1779.338531369079	4.167918244249
3	1656	1781.206220356214	1.68000995856
3	1658	1781.714814108365	3.27195887363
3	1660	1787.671452751552	14.698816860925
3	1665	1795.738261264285	1.868978246291
3	1670	1811.953411750534	1.714170055607
3	1675	1814.70576901889	1.848852572427
3	1686	1827.507276828163	1.345370143579
3	1688	1829.421128495486	4.371395765953
3	1699	1837.625746292745	12.416106347807
3	1701	1837.668378316234	1.522085968277
3	1703	1843.415519858189	13.810208248743
3	1708	1849.504437083873	17.296964336279
3	1710	1850.155081425971	1.988665184598
3	1721	1853.303167792595	3.041606155478
3	1723	1854.064840304687	0.780816930259
3	1728	1859.044606824643	7.353856367107
3	1730	1862.484314052707	5.567233771548
3	1741	1870.020604972327	6.993871653712
3	1746	1871.224842923235	8.165398051866
3	1748	1889.566816421073	23.152240425816
3	1753	1891.552848380158	1.489231439931
3	1758	1899.737978892251	3.170879861483
3	1763	1902.558616460354	32.309376231496
3	1768	1904.699010007202	4.565462975468
3	1770	1912.970969617481	8.649739805511
3	1784	1930.601670114184	5.606010712779
3	1786	1930.699822866984	6.346136862678
3	1788	1934.824455219741	7.733442434802
3	1790	1936.749318388031	6.825517127695
3	1795	1946.185618444195	1.158764919822
3	1800	1948.758624561147	2.078136427645
3	1805	1954.704629077727	1.998034446625
3	1819	1969.307478368772	11.558616057956
3	1821	1970.224389944969	9.671756860603
3	1823	1978.338199604806	11.74767187725
3	1828	1981.950919051606	1.956709167313
3	1839	1994.691210008765	30.393174906604
3	1844	1995.605460639207	0.435003794121
3	1846	1999.108924293513	13.41038166743
3	1848	2003.162071395659	16.783918453644
3	1850	2005.429961240167	18.292828357509
3	1861	2022.8547195382	4.998989332017
3	1863	2023.35969048798	0.767242569864
3	1868	2028.576397746737	2.562438291152
3	1873	2031.212145526602	8.938955411902
3	1881	2034.02892349813	2.649633638679
3	1883	2034.305196161597	2.696967314003
3	1885	2036.151567040293	6.065786712907
3	1893	2043.729614157582	3.212957998906
3	1895	2044.346009142202	3.14760997143
3	1903	2048.816660907666	3.904195310227
3	1905	2049.78089512371	3.58879076942
3	1910	2051.847458112441	1.786389447241
3	1921	2069.016443160663	1.833895221481
3	1923	2069.06634335475	15.58708135194
3	1925	2071.216473119428	2.460782602519
3	1930	2084.379748334088	6.23996904934
3	1938	2086.088994697537	0.08537567118
3	1940	2089.9279546699	4.548340484976
3	1951	2098.686638052895	2.981295646967
3	1953	2102.773209970396	5.553381640405
3	1955	2104.521338616762	7.153037746509
3	1963	2109.318902998475	3.631165849689
3	1965	2109.56988775714	2.375463481723
3	1970	2118.229636083604	1.758164738119
3	1978	2122.971298816103	2.76326557707
3	1980	2130.082639677475	9.886691264295
3	1988	2145.232253586594	4.847897030339
3	1990	2148.57051350404	4.477661508711
3	2004	2176.033794781391	11.161353517949
3	2006	2176.197068871937	4.6879612202
3	2011	2180.09906969347	4.217154295547
3	2016	2183.606828233993	3.555170497736
3	2021	2197.596761104935	23.446125407632
3	2032	2208.264113569057	9.279397859355
3	2040	2211.340071715931	1.426302248635
3	2042	2212.041485496507	29.089355642438
3	2050	2219.071905884349	32.306927937877
3	2052	2220.32509088782	3.912330961269
3	2057	2223.119761971724	0.38458519887
3	2059	2228.180500862172	23.004019603295
3	2061	2229.179539542016	15.633859082647
3	2066	2229.85750332164	0.20575727039
3	2068	2230.974734169576	23.319381534144
3	2073	2233.73215957631	25.335464792753
3	2078	2235.72580444137	0.610066132969
3	2080	2236.064580224315	2.352832072729
3	2085	2240.546064303742	0.002394446976
3	2093	2253.724695785561	0.905015206314
3	2095	2253.934435537863	1.185731205818
3	2100	2270.240198904262	4.529355393684
3	2114	2285.683539983983	11.929524574509
3	2116	2286.200036740268	2.499802378475
3	2118	2287.71348425426	5.528686687512
3	2123	2290.84947276515	1.261434134561
3	2125	2293.749202545985	16.024529011734
3	2133	2304.634950947272	0.99554263751
3	2138	2306.44853750913	0.106180684934
3	2146	2310.126641677692	1.134227585555
3	2151	2316.517590923654	8.547321968834
3	2153	2318.809500494874	4.676872857358
3	2155	2318.816262857339	14.244621593016
3	2160	2319.754003002372	0.26618275329
3	2165	2327.762606923104	3.572954517793
3	2170	2341.900489778421	5.766223695143
3	2175	2350.703975135296	0.320435220852
3	2180	2370.755402687493	6.025655779011
3	2191	2391.839995180217	11.902502384449
3	2196	2395.278484645948	1.240686015538
3	2198	2398.013596470395	12.330466947054
3	2206	2402.078142664549	21.384066689256
3	2208	2403.743633760918	2.869805445445
3	2213	2405.00457701772	4.043114174062
3	2215	2410.608289922715	6.519889263044
3	2220	2434.863283067052	1.492253243599
3	2228	2459.391147745092	8.26531788284
3	2230	2460.380730683693	1.223715554004
3	2244	2478.425323379368	0.689549187449
3	2246	2478.526596758696	6.488260742117
3	2248	2482.755474440431	14.433821751141
3	2250	2484.188197516723	9.851332263826
3	2255	2497.875377676339	2.22186609294
3	2266	2518.631687552623	0.89062977219
3	2277	2523.049496201988	3.321615432999
3	2279	2524.069075793744	11.802000368875
3	2281	2524.425380357815	9.539276247978
3	2283	2525.437631071449	6.705376199071
3	2285	2525.541643557082	6.273312996433
3	2290	2538.50865464357	2.086378465489
3	2298	2563.170652748825	3.143898666592
3	2300	2565.465315566903	3.136945217189
3	2308	2572.260019586417	1.32433737422
3	2316	2585.961995726286	20.012504222262
3	2318	2588.49365852258	9.44861508771
3	2320	2589.962631138644	8.22855399795
3	2328	2599.278423148361	2.433802740511
3	2330	2604.323167764422	5.894576219128
3	2335	2612.888610435798	2.448677246066
3	2340	2643.06185233116	4.717437433709
3	2345	2647.973215909559	0.652535542239
3	2353	2651.188046957009	2.236250015198
3	2355	2651.564601013362	2.158743077678
3	2366	2660.322746368606	7.457063896643
3	2368	2660.812268996278	1.756288365499
3	2382	2669.61756533745	6.446702905513
3	2384	2669.698261429166	13.464618489389
3	2392	2672.898322576362	9.181626556764
3	2394	2675.404297046606	5.912610672568
3	2399	2676.76559256775	11.138400470735
3	2401	2678.601750877949	2.725613504073
3	2403	2680.685969448917	10.068358048751
3	2408	2688.153835955964	15.930596730319
3	2410	2689.046146086743	6.341409177973
3	2415	2694.645427504633	1.283817652355
3	2420	2698.120374157892	1.572262857652
3	2428	2711.067659098873	7.035766532593
3	2430	2712.365934680412	1.339800881713
3	2438	2714.97444882701	0.951753408812
3	2440	2718.345535283926	3.996045851012
3	2445	2722.034073864832	2.595522306295
3	2453	2736.117326712095	2.904108912066
3	2461	2740.153718659784	1.456763843572
3	2463	2742.499770465072	10.036990047009
3	2471	2747.974126449071	11.330237736102
3	2473	2755.738348495321	8.7858849588
3	2478	2759.162965098487	13.087898241639
3	2480	2762.526932850951	5.945996226684
3	2488	2785.214419635935	2.35108157029
3	2493	2790.923996933274	7.634207827302
3	2495	2793.302783042141	4.311351582643
3	2500	2803.738043468273	6.857280489642
3	2511	2811.137608492268	6.51668187718
3	2513	2819.964698811605	13.44914087814
3	2515	2821.120472003869	11.051286228501
3	2520	2840.437981722208	7.966984306569
3	2525	2845.787186132782	0.054001610166
3	2530	2851.78579800354	0.19558342197
3	2535	2867.343039493841	2.56040203227
3	2546	2877.392505872658	2.155789610819
3	2551	2881.184176408204	1.991262627469
3	2553	2882.877131414997	12.935077316674
3	2561	2888.118439618664	0.080978293046
3	2563	2888.163633301082	13.604855885776
3	2571	2893.13745830041	7.789774696236
3	2579	2896.189980508158	4.419442520932
3	2581	2896.260066239321	3.564070812946
3	2583	2896.793075355381	2.814256987734
3	2594	2902.901447045682	6.848869087038
3	2596	2903.242603936694	4.435741660168
3	2601	2905.376529956048	4.889797203582
3	2603	2907.063520856677	2.730853463405
3	2605	2910.197036747509	12.397887566235
3	2613	2915.671288042073	1.607113777264
3	2618	2918.130530085752	6.242534135443
3	2620	2919.839225070369	2.020954570217
3	2628	2925.194384043594	0.148690882797
3	2630	2927.610622918254	7.117847005638
3	2635	2934.691910149557	3.400231213987
3	2640	2957.167407564286	0.553005235526
3	2645	2966.144431811626	3.070642108074
3	2659	2979.403939157575	1.304555537286
3	2670	2985.966592333219	7.626337916548
3	2672	2986.033468051244	5.969230591297
3	2677	2987.368695456986	5.001260966817
3	2682	2991.877742653384	21.113511904178
3	2687	2996.210585634346	3.116072939454
3	2689	2998.234271773953	26.684602938024
3	2694	2999.663432998571	17.249367993235
3	2696	3000.205904528792	1.157221758075
3	2698	3002.879062814509	15.779037388017
3	2700	3011.574447104711	22.381732743742
3	2705	3020.784452361898	6.577334164881
3	2710	3051.529715979256	5.481529441435
3	2715	3072.725284730303	1.868469863023
3	2720	3080.557825842028	5.30340452122
3	2731	3086.801834190366	5.276206473836
3	2733	3089.699130384071	7.146182385647
3	2738	3098.593225478181	14.969165582591
3	2743	3100.297714172689	0.397848655939
3	2745	3100.658914065377	3.014430715494
3	2750	3109.28426237287	7.27089096752
3	2755	3119.458004780741	6.288831992415
3	2760	3127.944700090373	1.659707142046
3	2765	3132.490643397672	0.963268940131
3	2773	3154.257492630023	1.229699898818
3	2781	3157.93700816924	5.471356206926
3	2783	3159.574084097609	3.563891584729
3	2785	3161.740369770139	4.255333097207
3	2793	3167.050990213626	3.95484931893
3	2795	3167.710893137193	0.877660568433
3	2806	3179.392702420527	10.401638408302
3	2808	3181.474137483781	3.490338721736
3	2816	3186.563079138412	7.600534603385
3	2818	3187.378619579755	4.736526160185
3	2823	3198.245358452255	13.346664823481
3	2825	3198.810941626615	9.598914870222
3	2836	3215.602079967263	12.556987801378
3	2838	3218.530317125381	9.593805063731
3	2843	3221.24941091472	17.688329285378
3	2845	3223.275774488665	3.113307734024
3	2856	3242.972395227292	5.005232479303
3	2864	3245.70969024071	1.501674937394
3	2866	3248.766386070875	21.990799817358
3	2871	3253.004848137151	1.419581014483
3	2879	3254.907701259733	15.611630990141
3	2881	3255.909902997397	2.42907233348
3	2886	3259.912213194361	15.215598848043
3	2888	3264.183893588502	8.158972609889
3	2893	3273.783971381931	1.569924577446
3	2901	3278.852224581243	1.617672317241
3	2906	3282.762704334208	27.894386632239
3	2908	3283.028420190215	0.425772905232
3	2913	3288.548845991786	0.381046302541
3	2918	3289.950493109924	0.49483437764
3	2920	3291.02218963945	16.167267030558
3	2925	3293.656053306986	0.182954634311
3	2930	3298.013168330549	1.022413658678
3	2941	3305.629211352918	3.705862965849
3	2943	3306.509210040957	0.977054928756
3	2951	3313.173365505773	8.803512820581
3	2956	3315.51426001212	5.340692711352
3	2961	3318.801786069709	7.364878890731
3	2963	3320.156793085579	5.438438141348
3	2974	3326.183334365042	4.663178478477
3	2976	3328.04223396924	5.173584833833
3	2978	3334.311091521865	9.804469475153
3	2983	3339.551148259941	20.903299556193
3	2985	3344.520340982282	7.96850786277
3	2990	3346.614199126817	0.846554188092
3	2998	3353.964435381676	7.098921459585
3	3000	3358.39332402783	5.130244979135
3	3005	3378.098741975517	0.822009944356
3	3010	3380.717045704791	2.127596443118
3	3015	3382.76777206719	1.087583897774
3	3020	3384.639891821107	0.342355932072
3	3025	3397.165181037323	2.377862549189
3	3033	3417.006387208648	0.917198634688
3	3038	3423.538256164827	13.721086206694
3	3040	3425.059803017235	6.023270674833
3	3045	3441.667021542211	0.256970880345
3	3050	3445.454948860379	2.89490347218
3	3061	3458.080246132944	5.878302437285
3	3063	3460.039665643612	5.029798915433
3	3065	3462.559430417167	6.101372811875
3	3073	3466.641683626283	3.486816963243
3	3081	3469.857070731973	4.32940567011
3	3086	3473.121276779958	3.046129370994
3	3091	3479.008219051002	2.021285131772
3	3096	3487.869134994066	19.883976900267
3	3098	3488.154943574854	20.124631509102
3	3103	3490.500609015505	2.631865785276
3	3117	3502.00350186218	13.74132752132
3	3119	3502.152780163916	7.920844860154
3	3124	3508.058974288641	12.619815692754
3	3129	3512.833146304033	4.615755239058
3	3131	3513.735047292603	17.658587176195
3	3133	3514.124643484979	14.355897463152
3	3135	3517.90206596826	10.924457785263
3	3140	3523.311352878575	3.466577957221
3	3148	3530.042110899012	5.931642819566
3	3153	3534.569416191001	0.635018179268
3	3155	3538.498267890165	9.372441343218
3	3178	3558.12615479843	1.713328105227
3	3180	3559.943386924573	17.895397375735
3	3185	3562.586337114278	1.097212564578
3	3187	3563.251438671744	13.844027819439
3	3192	3566.718719903704	1.17491167124
3	3194	3568.271722482361	14.139706913781
3	3196	3568.330632270772	15.678619654701
3	3201	3570.506375910833	17.675120080835
3	3203	3571.83867310327	15.53538933207
3	3205	3572.678226939823	3.619580716903
3	3210	3585.755967607806	5.56590762154
3	3215	3603.599220018984	0.635583299831
3	3223	3611.110584600657	7.371634059289
3	3225	3612.402366121845	6.368937476357
3	3230	3622.858716194924	4.621364190666
3	3235	3623.513611942554	0.363790307484
3	3240	3644.066224498468	1.782642550601
3	3257	3652.473471572538	6.586361110733
3	3262	3655.311656757351	10.567469817676
3	3267	3660.017326624961	14.085822614321
3	3269	3660.553650351802	7.349620514933
3	3274	3662.737825594126	7.408767975445
3	3276	3663.363060483879	1.157929220166
3	3281	3663.488099026109	16.665626047441
3	3283	3664.148796585505	12.727697982995
3	3285	3671.045233165083	7.613426013476
3	3290	3684.260701105624	13.150317530413
3	3295	3687.325535064292	2.298368281538
3	3300	3696.760054690346	2.080782371723
3	3305	3702.152828608404	0.360863980631
3	3313	3705.265795444256	1.264928227399
3	3315	3706.639592070993	2.490389405903
3	3326	3749.686070482972	0.64382554746
3	3328	3749.877020239017	21.716164475634
3	3330	3751.52846123075	19.423339103489
3	3335	3756.952285010459	0.601361518749
3	3352	3782.475179383887	13.782376185723
3	3354	3790.134219237131	13.820076889333
3	3359	3798.986030946462	7.27689154801
3	3367	3810.05941694616	38.9216051528
3	3369	3810.333312384139	4.405913835848
3	3371	3811.861414309774	35.785960501031
3	3376	3819.714309839551	39.0958105376
3	3378	3819.923311163844	0.216047295111
3	3380	3820.900078928572	14.704766062554
3	3388	3835.638874996397	3.294221461163
3	3393	3837.306385668244	1.663826528577
3	3398	3840.310326536948	8.305584060315
3	3406	3848.75882521054	10.655782859281
3	3408	3850.360654755317	4.906622306248
3	3410	3853.673043316884	12.111184796882
3	3415	3865.313311401442	9.260468115055
3	3420	3872.788200935547	2.80796862702
3	3425	3899.131778617577	3.041280452902
3	3433	3911.014972558881	4.268743134539
3	3441	3923.00462622012	6.626556938492
3	3443	3928.142931963055	19.667496947046
3	3445	3929.640701995334	11.768828293185
3	3450	3949.804780148628	0.976224279353
3	3455	3960.222814760332	1.853462826374
3	3463	3968.827721497208	1.75853141824
3	3465	3975.557762225795	12.068573447674
3	3470	3986.582233343192	5.749749400288
3	3475	3995.229096958299	0.111681927511
3	3489	4006.182408943621	3.786104906533
3	3491	4015.142477178834	13.473160559647
3	3493	4018.370455289587	15.285834479501
3	3498	4024.94968076334	19.317063525341
3	3503	4026.094262842914	5.628350744105
3	3505	4026.670660142832	0.613779180692
3	3513	4029.977525853085	1.237308420828
3	3515	4039.183154231355	10.585020757637
3	3520	4045.241556636228	2.231885237922
3	3525	4052.494513434493	1.04765160235
3	3533	4061.936257725482	6.154640372205
3	3538	4066.166985231113	5.448866593577
3	3543	4074.52223442448	0.190322903212
3	3548	4077.706309171924	15.215389243729
3	3553	4078.121494620288	0.47318610538
3	3555	4078.487720610387	0.724811534592
3	3563	4089.056872035209	5.934539919163
3	3568	4097.834093667247	19.226125811504
3	3573	4105.839518797133	7.965487711755
3	3578	4113.348352224727	2.214754751716
3	3580	4114.181885288537	17.461419921131
3	3591	4139.100175216899	2.748037600278
3	3593	4139.182162000646	8.803008593074
3	3598	4146.560694648963	1.210927436555
3	3600	4152.527915388838	19.718339779953
3	3605	4157.496976541678	1.088193008967
3	3613	4162.13830437298	1.931196555642
3	3618	4166.833202178379	6.234841080203
3	3620	4167.469878473745	1.670996874699
3	3625	4189.764428873858	2.520875627556
3	3630	4195.963012317812	2.249231191216
3	3638	4200.917284029967	2.478438491174
3	3643	4216.241970356935	16.743278301637
3	3645	4216.796626092608	10.718642155078
3	3650	4220.260641711539	0.851826813776
3	3664	4235.836977594471	1.264910822577
3	3666	4236.442659489483	8.837736142344
3	3671	4243.755720373371	9.526429773989
3	3673	4244.304492358592	9.526478959835
3	3678	4245.663425021987	8.924432241917
3	3680	4245.793713290348	0.573876324911
3	3688	4253.039635795157	4.415051637637
3	3696	4265.453824118146	19.246202101993
3	3698	4268.663338614539	7.510831405953
3	3703	4280.174303243752	15.996398999928
3	3708	4293.261530843778	15.782441126452
3	3710	4296.954549508166	7.417780257975
3	3718	4304.971739289167	5.180641156766
3	3723	4319.115004479353	16.812409052652
3	3728	4326.234325748297	3.359016285802
3	3733	4337.183129387545	19.721251179163
3	3735	4337.940073787329	4.51818997223
3	3740	4366.092450214563	7.095302185318
3	3745	4370.788233089495	2.382161923925
3	3753	4377.899294279202	0.821395299658
3	3758	4378.50391510757	0.314987142491
3	3760	4383.383486652422	7.008498200096
3	3768	4387.204231940495	0.733596388041
3	3773	4388.594875417278	0.552247517569
3	3778	4397.184109767809	10.352716436515
3	3780	4405.614959554235	12.36435495907
3	3785	4427.335843247218	21.200297986282
3	3793	4429.359857692033	1.604520523016
3	3795	4430.820574847692	2.35526646912
3	3809	4444.136561975531	9.755046588575
3	3811	4444.299118084808	8.180452596126
3	3813	4445.017312231712	2.668558243827
3	3818	4448.663401528328	11.42716197717
3	3823	4472.519148542076	26.635280339624
3	3825	4473.885667102237	3.419438328552
3	3830	4480.805317548696	5.554009404009
3	3835	4485.459247851319	1.778006165728
3	3840	4492.395275151014	2.697902335585
3	3845	4496.169596311732	1.452486911752
3	3850	4500.343231561815	0.119789450854
3	3855	4512.216195547031	3.762126730872
3	3866	4537.816477305859	13.350727190803
3	3868	4545.708043752557	15.784563178134
3	3870	4546.510101342308	11.783638106643
3	3875	4562.629418629517	12.593448338193
3	3889	4573.141804483111	6.291103961726
3	3891	4573.628189805158	3.452767765276
3	3893	4582.451227049037	12.178624761306
3	3898	4589.251596575741	0.096912961042
3	3906	4597.490888390067	27.739259680723
3	3908	4599.65480473523	8.017514333832
3	3910	4604.192828319239	10.790910336109
3	3915	4606.358057192405	1.972374110244
3	3920	4625.294286982864	0.357895529511
3	3925	4635.97543958248	1.572822222425
3	3942	4673.043955534798	3.568622391828
3	3947	4675.147974201608	1.027097330889
3	3955	4681.813414504487	29.920664416985
3	3957	4682.12436547889	28.009753334433
3	3959	4682.231955231021	2.622144868782
3	3967	4689.434960757061	30.369943750969
3	3972	4689.891875150825	16.905523403997
3	3974	4690.340652627932	1.33542397663
3	3976	4693.832792846899	5.283046778027
3	3981	4697.767016577583	16.386351808289
3	3986	4700.091511978904	10.562572386749
3	3991	4700.936556649696	6.217183218625
3	3993	4705.867194561251	5.155608676673
3	4001	4710.96444474757	12.187356364456
3	4003	4711.052923063192	4.813920913686
3	4011	4716.289373844735	1.773756795484
3	4013	4728.38757384264	19.435869482905
3	4015	4728.949876871559	13.637918763268
3	4020	4737.413718436732	6.767214159387
3	4025	4744.587235286706	1.374022194345
3	4030	4755.946713820562	8.324241856571
3	4041	4769.406170238135	2.320673274658
3	4043	4771.854686810897	13.345994623598
3	4045	4773.375127010359	11.906304004363
3	4053	4781.247646006868	0.666867787992
3	4064	4791.346667645937	1.163102917654
3	4066	4793.784056647035	13.09449331793
3	4068	4795.484804749639	9.900010449597
3	4076	4797.609190955081	10.123018836193
3	4081	4797.81075059167	1.869137866441
3	4083	4798.039020594122	0.278303625539
3	4085	4800.626641183546	4.291676401943
3	4093	4817.397177263299	7.225507147905
3	4098	4818.329652807769	3.811524165646
3	4100	4819.520024700885	2.099295866765
3	4105	4828.614685216634	2.494161171541
3	4110	4834.601369433392	0.897546010028
3	4127	4848.361540181346	0.200041934881
3	4129	4849.68784619693	4.706338251619
3	4131	4850.603373635682	2.266532729032
3	4133	4852.402027612589	4.46263862828
3	4135	4853.24085005663	5.236826093029
3	4140	4855.913092620273	1.080571824219
3	4145	4864.379756155656	2.490446079264
3	4150	4870.381168862075	1.990609341518
3	4155	4886.946660084554	4.756428875758
3	4160	4892.501366938902	0.279895684394
3	4168	4897.97542616813	0.597173948164
3	4170	4898.468563796335	0.826400433151
3	4175	4907.372422700463	1.424299067628
3	4183	4926.83877440846	1.090889323782
3	4185	4931.441715838705	7.729066818651
3	4196	4948.947711706346	4.286509521434
3	4198	4952.614958514828	20.543036495968
3	4203	4953.342784381242	8.38746755917
3	4205	4953.8503625244	1.219415992624
3	4216	4969.129975335177	9.652766273759
3	4221	4976.697470732882	15.213518818642
3	4223	4977.391838318606	1.48385587726
3	4225	4988.595757394009	27.054016219418
3	4233	4993.485611681414	2.883125893389
3	4235	4996.385811956386	6.848425212747
3	4243	5001.558935252831	4.536341162619
3	4248	5005.070567121108	2.542210439022
3	4250	5006.014143618428	8.641673069428
3	4255	5018.5143411309	0.337059569216
3	4263	5026.874134512051	0.19381933929
3	4265	5029.944539782596	3.501616215679
3	4270	5043.115925293322	0.504460775783
3	4275	5058.50327341528	1.058200519147
3	4280	5061.216250463035	0.413767587056
3	4288	5073.923565434496	5.571837627479
3	4290	5081.134713575918	7.494286198016
3	4298	5089.599138158851	0.59582837443
3	4300	5090.505890941847	6.438164646787
3	4305	5100.018980365691	6.158735427072
3	4310	5110.162754902038	2.958114868512
3	4321	5125.875010439379	1.877131104445
3	4323	5132.608428317072	21.402850579146
3	4325	5133.68382698118	20.60112026792
3	4330	5137.232291297754	3.290079251356
3	4335	5138.233045659889	0.023191266389
3	4340	5148.630087279043	4.670000932486
3	4345	5151.946827585876	1.006890581488
3	4350	5167.518086983938	9.455531583086
3	4355	5183.063233833605	12.033259837459
3	4366	5187.280631852793	0.604356035651
3	4368	5201.138529761507	17.10699075984
3	4370	5201.279294335219	16.787248946018
3	4375	5207.550220405376	0.112879303153
3	4380	5217.56829962082	8.859229341326
3	4391	5219.893620113163	2.221516868097
3	4396	5223.345269160087	4.075525213888
3	4401	5225.876589442987	1.320037884769
3	4403	5227.408860811276	9.449247543555
3	4405	5229.705458576254	9.449647724173
3	4413	5242.471651027553	5.587531519737
3	4418	5250.591412067243	8.471382359391
3	4423	5250.703843202644	2.320520679648
3	4428	5253.46600229799	2.83121093346
3	4430	5254.312665561877	3.015823866362
3	4438	5259.011330944149	4.646355022233
3	4449	5264.470802255404	9.380916982169
3	4451	5265.295216425563	1.995077449119
3	4459	5268.586292225643	5.383266759784
3	4461	5270.873428158121	3.154852746978
3	4463	5271.482193689109	4.751746310116
3	4468	5281.976179621459	17.906028127776
3	4470	5283.747044359203	3.102443636774
3	4478	5299.805540846904	2.626319240859
3	4480	5301.48329821539	9.256239171033
3	4485	5316.10670772053	7.962364173832
3	4490	5320.741636753294	2.593282804959
3	4498	5345.796615609201	2.715874323502
3	4500	5349.208901690975	3.807720912085
3	4505	5356.36583642411	2.633573392408
3	4510	5357.957598271648	0.35273596483
3	4521	5365.531637197736	0.581688191296
3	4529	5373.863618970505	0.395709187034
3	4531	5374.126653612323	6.528507962481
3	4536	5379.767151298819	16.392338972953
3	4538	5382.608708190863	18.539785045044
3	4546	5385.832561025493	3.00854684542
3	4548	5393.627946730343	8.940417489042
3	4550	5394.046164004939	16.0617513097
3	4558	5395.576401817597	1.131726261711
3	4560	5396.69307092763	1.65852141162
3	4565	5400.549118245023	1.346435372381
3	4570	5403.085036805619	1.207887070703
3	4575	5412.205791785785	2.254842311292
3	4580	5436.010853616788	5.517581526206
3	4585	5444.727833547114	5.204213231257
3	4593	5450.374486693344	1.432890027304
3	4595	5457.783766319215	8.530652880137
3	4600	5460.882449839834	1.107913714501
3	4617	5477.922088274466	2.372916605622
3	4619	5478.891061288575	2.877036894013
3	4624	5482.768660329464	2.930012643259
3	4626	5486.007349971718	12.141385284134
3	4628	5487.349416267118	12.693299434956
3	4633	5492.182827860963	15.084887750566
3	4638	5499.811839781582	9.193883353451
3	4643	5502.059966950269	0.562393258325
3	4651	5511.585825526267	0.042614357347
3	4653	5512.570683248286	1.29173298812
3	4658	5517.855903493608	24.36317315439
3	4663	5520.951058643565	0.754530306108
3	4677	5526.543259855513	8.783044374547
3	4682	5527.529399456727	3.485724600674
3	4684	5528.59582057324	7.037919329084
3	4689	5530.875817598229	5.101421098724
3	4691	5530.991001120245	5.02090745385
3	4693	5532.142523633848	5.236399609369
3	4701	5537.577486615619	8.944512933132
3	4706	5538.253898411742	2.856272299714
3	4708	5539.97139993305	2.251972433503
3	4710	5540.285089405638	4.7185592956
3	4715	5558.100315869497	5.244501606959
3	4723	5567.126722210179	4.470484726844
3	4728	5573.51396835407	0.458978285314
3	4733	5579.739381070812	15.662658433482
3	4741	5583.225429353158	0.428093797966
3	4743	5587.585401434667	11.261696853395
3	4748	5591.192894529852	8.917675005803
3	4750	5592.851910284469	3.361615420046
3	4758	5601.428331607749	4.402789823986
3	4760	5610.061033211681	15.336361613588
3	4768	5629.235295594065	7.262531765676
3	4770	5632.119052459762	6.487462324642
3	4778	5636.09101949695	0.891796247224
3	4780	5636.508607172078	1.281847255336
3	4785	5640.196101219197	1.386992881017
3	4790	5650.303999108744	3.431661502313
3	4795	5656.633233579872	4.9845475305
3	4809	5664.127854872085	6.924391976122
3	4811	5665.58221721468	7.545823367701
3	4813	5669.647272323194	6.133692033461
3	4818	5676.268147171973	18.719162536979
3	4826	5682.249717364809	8.144507990844
3	4828	5682.652752397334	2.509520507389
3	4830	5684.402635605507	4.038283568138
3	4835	5685.714600793789	0.961333284366
3	4840	5712.358842957214	0.496088877119
3	4854	5718.622648977665	4.425838561532
3	4856	5721.513962798558	6.240946923091
3	4861	5726.992212654711	11.396998712426
3	4866	5729.281895649449	13.569391263531
3	4874	5730.450276590129	1.099925443721
3	4876	5732.982845218268	10.421529163871
3	4878	5733.271857519807	4.551464708173
3	4883	5739.246741140413	9.785658600542
3	4885	5747.584095453646	9.736046975735
3	4890	5765.115840789975	6.308040959883
3	4898	5769.479849052761	0.119590766087
3	4903	5770.30718767471	4.320152761089
3	4905	5772.757991697297	3.013654734109
3	4916	5782.425571350569	3.577447755365
3	4918	5783.944427514921	3.331824945363
3	4926	5786.266049670589	6.535684489287
3	4931	5796.80246764549	11.917482313696
3	4933	5797.508030744732	11.370396867602
3	4941	5805.100868025622	0.501973077801
3	4946	5808.92077025421	20.607777064275
3	4948	5810.274792224433	11.69189149213
3	4953	5816.340637354868	7.448327159086
3	4955	5817.763893721835	1.51727050067
3	4963	5834.641174170699	5.431235332327
3	4965	5835.319723156197	1.837881574343
3	4973	5840.147239160513	0.876386396151
3	4975	5842.260996495894	5.803877972146
3	4983	5855.337442825044	1.545264275716
3	4988	5858.546925652349	5.921256288678
3	4993	5862.249352391386	2.94058575444
3	4998	5873.924010848946	18.340474096836
3	5001	5881.192927067267	16.82445751652
