version 2
run Testbench_1-1441-20170516-19:23:03-62236
attr configname Testbench_1
attr datetime 20170516-19:23:03
attr experiment Testbench_1
attr inifile omnetpp.ini
attr iterationvars $0=375
attr iterationvars2 "$0=375, $repetition=41"
attr measurement $0=375
attr network Toll_road
attr processid 62236
attr repetition 41
attr replication #41
attr resultdir results
attr runnumber 1441
attr seedset 1441
param **.numBooths 3
param **.queue[*].serviceTime exponential(5.11s)
param **.source.interArrivalTime exponential(5.854s)
param **.source.numJobs 1000

vector 0  Toll_road.queue[0]  jobsProcessed:vector  ETV
attr interpolationmode  none
attr source  queueingTime
attr title  "jobs processed, vector"
vector 1  Toll_road.sink  lifeTime:vector  ETV
attr interpolationmode  none
attr title  "lifetime of arrived jobs, vector"
attr unit  s
0	3	3.694364128464	0
0	8	11.264877446404	0
0	12	15.395501714153	3.980873969715
0	17	18.106098209843	1.229087942019
0	23	35.132405635004	0
0	28	58.411902396123	0
0	33	61.501246368594	0
0	37	63.146408853592	0.017408119095
0	42	64.669250052264	1.395195750889
0	47	66.258991126974	1.513183642228
0	53	67.946270577182	0
0	58	92.059572113131	0
0	62	105.643367020046	6.79328420774
0	68	110.509122648541	0
0	73	113.699096758577	0
0	78	123.8058912184	0
0	82	130.0576289909	1.94441454577
0	87	132.755803747305	0.538118740834
0	93	157.517450126458	0
0	103	181.981094232353	22.866036152748
0	111	190.945938862932	19.121909857314
0	122	199.813292875089	26.317707864197
0	127	201.020771186639	14.006552135196
0	129	202.682051085325	14.943472097669
0	131	206.350485581302	12.888436515247
0	133	207.191729662046	12.309291350702
0	135	207.817821594004	10.580014914697
0	137	208.290328401534	7.311450384457
0	142	212.52810310724	1.264784054346
0	147	216.026943961999	1.692852941031
0	153	222.056896343343	0
0	157	244.607222947699	17.561347684533
0	163	253.52948112546	0
0	185	285.75704855348	30.183024457186
0	187	288.856719788495	22.337905539811
0	189	292.018753906983	21.609292475016
0	191	297.284144260496	22.952985985113
0	193	299.359274231203	20.170704699225
0	204	313.416460374446	33.891085977893
0	209	319.94803105287	38.523185991504
0	214	327.617983198284	27.742222942221
0	216	339.103506806543	30.788791850809
0	218	339.954028151985	29.850426624621
0	223	350.012459283044	31.198411020826
0	225	353.749204362988	31.957282902685
0	230	354.305271127096	7.163652411283
0	232	356.326199769396	2.317335286081
0	240	372.975765142603	9.360622824362
0	245	374.203491408145	5.282158043789
0	247	379.830838893582	6.356028413029
0	258	402.659551323371	17.759385345879
0	260	402.808229407278	10.792155255445
0	262	404.986779131723	7.738468526814
0	268	408.222604388432	0
0	272	414.214181060239	0.361126571488
0	278	461.504307109294	0
0	291	485.840995366954	23.839347805415
0	299	493.860710191421	28.282852696696
0	307	503.086728301281	34.33282837324
0	312	509.263528004446	26.791786165698
0	320	515.001498714292	28.211319929082
0	322	520.007604030023	28.001795316186
0	324	521.791655220544	23.930401404595
0	326	522.628952224676	22.975480583014
0	328	526.043594768988	22.663351887857
0	333	529.617809596003	19.382217183783
0	338	531.90256152713	20.628057515001
0	343	538.277206279062	10.730555280322
0	345	545.001534026041	15.132570677927
0	347	546.304493072787	12.311458705342
0	353	568.291063799358	0
0	360	570.04607900243	0.448405979306
0	374	586.053357330295	16.300622701997
0	379	588.959138336339	18.482859243415
0	381	592.162718982358	11.903854542559
0	389	596.46136184115	15.88542550625
0	391	598.496904404876	15.388637223523
0	411	625.183477860706	37.865548792496
0	422	634.585788969777	39.379105087392
0	427	641.114316552038	44.965599314378
0	435	648.292100978258	47.31987572802
0	437	650.005883017882	44.236702908634
0	451	664.642529046503	55.889549046795
0	453	667.815083734434	56.620254335352
0	455	668.485977658086	50.031399790003
0	457	674.702592054477	53.63604487883
0	459	680.921498144022	53.419280115966
0	461	682.241659565789	48.462184949746
0	463	682.630483989509	48.627830011106
0	471	688.475543221432	50.479895014082
0	473	690.786204472658	44.855933532914
0	475	692.15003656049	46.189608645134
0	477	696.056464537357	45.721147889951
0	482	697.707740584175	43.626331062032
0	487	699.060614067959	43.212677400558
0	492	701.677203784926	44.869180894958
0	494	701.720112583204	17.097210124638
0	502	703.01461642172	15.361170865446
0	507	704.669369348104	7.627698871993
0	509	705.002735185074	6.655538419891
0	511	705.883386133473	4.950266554172
0	519	715.9108271284	13.868276923909
0	524	718.765142035005	16.264535964514
0	535	726.029832872837	22.69994789344
0	537	726.175741353082	19.278593892484
0	539	732.653357592245	22.645683841872
0	541	735.849153907205	18.8942015522
0	546	737.644620473349	16.689979238456
0	554	748.264902386441	26.868136110806
0	565	761.833062967005	35.933851905288
0	570	765.798661357771	29.183377308275
0	572	767.560632367455	27.431980150931
0	574	767.813320899728	26.668615023199
0	579	774.02185777406	25.32161676647
0	581	776.791838528665	25.526271131841
0	583	779.567873550736	18.238921779037
0	585	783.333296210599	19.652651709138
0	590	787.658995306546	13.688282181494
0	595	789.185255601727	2.364478377412
0	600	790.151201475183	1.370484810879
0	602	791.243342985082	1.676487903905
0	607	794.470097509489	0.743345891641
0	613	794.729071634416	0
0	618	800.445785176399	0
0	623	814.240890380426	0
0	628	819.898585059008	0
0	633	847.475160097608	0
0	638	854.112590933032	0
0	643	865.56233521465	0
0	647	876.140206514306	1.084153192136
0	652	879.765802364733	0.453084456916
0	657	883.001311896683	2.054302507795
0	662	888.9171077531	3.414797553511
0	668	889.016482443909	0
0	672	897.308730791889	2.231771019931
0	678	911.327474562359	0
0	682	922.061814957204	5.420908827404
0	688	938.661068257926	0
0	693	947.582143635512	0
0	698	949.079637452366	0
0	703	972.939138164543	0
0	708	979.996757298024	0
0	715	985.082000257856	2.675184431302
0	717	985.949226697205	1.366915065191
0	723	993.486971757451	0
0	728	1000.721386700112	0
0	733	1011.216551849404	0
0	740	1023.938137375123	9.750711591456
0	742	1024.49537300194	6.611743091705
0	747	1025.740155866789	1.005675154442
0	753	1031.883698870508	0
0	758	1038.62397827951	0
0	765	1049.026665563796	1.604090228944
0	770	1049.834730594712	2.064138043023
0	778	1052.862373167012	3.602355764557
0	783	1057.113306871626	6.486132123868
0	785	1059.03289118059	6.642465147636
0	790	1068.886439145974	15.164273149541
0	792	1074.304687591491	6.450355245869
0	800	1080.63730979972	3.99286519697
0	808	1088.234459903223	11.547678849082
0	810	1095.203979819526	13.542569153969
0	821	1105.504283780616	21.988234204918
0	826	1106.268833164676	9.271100587967
0	837	1113.460531130921	12.56847642286
0	839	1114.812065358283	12.210839411534
0	844	1120.494392943996	14.8346985969
0	852	1126.277203806126	19.206167931083
0	866	1141.081283254943	33.724439402945
0	868	1141.777572136968	31.452511941983
0	870	1142.196350014202	25.345050502222
0	875	1145.363928275076	23.903144155056
0	877	1146.633968036657	21.036253174692
0	879	1148.380792455851	20.118784034303
0	881	1159.683798575523	30.911970317338
0	883	1168.0394453217	33.399635033193
0	885	1173.331775756196	34.272565641551
0	887	1175.438493644075	32.682893406063
0	892	1176.390130780097	0.537456249212
0	898	1180.682401395922	0
0	902	1181.082316785815	0.093356941987
0	908	1194.215268185225	0
0	921	1208.00818345955	12.867779552041
0	923	1209.477862133433	14.319955823514
0	928	1211.740936978387	12.081509348463
0	930	1212.582257328854	12.888263539186
0	932	1217.139981553851	5.583524618362
0	938	1218.927443674435	0
0	942	1238.254780732046	18.061863739022
0	948	1251.979012068463	0
0	953	1255.665106005327	0
0	963	1261.414726093849	5.058719900614
0	968	1263.24203147899	3.855109310889
0	973	1268.710269696166	8.429061975726
0	975	1278.628396438584	16.574187663899
0	977	1283.572768090948	15.550217224942
0	983	1285.716172943373	0
0	993	1295.294629726466	7.913092972531
0	998	1298.242181264979	10.42590648663
0	1006	1305.864295849439	13.029955992726
0	1020	1314.444713153373	17.926798050375
0	1025	1320.0116852868	20.26701006878
0	1027	1320.727161531686	19.361211456431
0	1032	1321.58307835444	15.674082834348
0	1034	1334.337000091556	28.011542065765
0	1036	1337.980845928457	29.368918162457
0	1041	1340.555003947445	27.442709159009
0	1046	1350.682619306039	36.177051057942
0	1051	1355.230153448069	33.720618965999
0	1056	1359.548455797532	20.330031899382
0	1058	1360.256676358551	10.971386181246
0	1063	1375.857896781335	22.122559130449
0	1068	1379.578108265728	23.675045076748
0	1073	1382.163980686964	9.883554462588
0	1081	1389.636467783742	12.514058997584
0	1083	1390.563991346384	8.689823685858
0	1091	1397.739612208442	11.712789820016
0	1093	1399.082799643392	12.671762594568
0	1098	1413.445180802808	17.47360422609
0	1106	1416.825304186778	20.723380824942
0	1108	1418.103079921106	6.602004424707
0	1113	1418.507891805613	3.960946534798
0	1118	1419.755576528957	3.641048074039
0	1120	1430.563293984441	12.234609575331
0	1122	1431.57781742303	11.892246822721
0	1128	1457.147693644388	0
0	1133	1463.587489271652	0
0	1138	1471.60428245903	0
0	1143	1481.769171897182	0
0	1148	1492.227226863223	0
0	1153	1497.567012022025	0
0	1158	1500.509163212495	0
0	1163	1503.650010045864	0
0	1167	1512.158527777025	7.019635211167
0	1175	1516.114902346894	3.915720986074
0	1177	1518.043255126702	2.816401204901
0	1183	1526.264060364591	0
0	1188	1529.175613077427	0
0	1193	1536.252641375177	0
0	1197	1542.901194068191	3.368460579539
0	1202	1545.709114967635	2.456242418018
0	1208	1552.056432589501	0
0	1212	1552.983455821645	0.607596006004
0	1217	1553.462085900123	0.007642619276
0	1222	1560.31811355679	2.627384588126
0	1228	1563.060220782053	0
0	1233	1570.057155022175	0
0	1243	1582.847423256008	10.392813747783
0	1245	1583.230756893926	10.773889862584
0	1247	1585.027216773509	4.442214071208
0	1252	1589.524708242008	4.199731433867
0	1258	1606.343150073745	0
0	1262	1609.70686427976	1.134672037333
0	1268	1609.754077106355	0
0	1273	1613.501259361952	0
0	1278	1615.846931438271	0
0	1294	1643.701920633559	23.157480527043
0	1296	1646.275169141734	23.075136551107
0	1301	1647.823242130327	19.641984917324
0	1309	1658.233235736862	25.423181598584
0	1317	1666.123481944011	28.046263050009
0	1319	1675.542373851206	28.186243115354
0	1330	1692.779732451256	43.377073731021
0	1332	1694.773665700382	44.783742707097
0	1343	1698.403263851303	39.860624902109
0	1357	1718.677302451537	54.52646658807
0	1362	1719.591233612344	42.130544382377
0	1367	1731.823688114844	47.942989901406
0	1375	1741.331215740916	55.325133277603
0	1383	1745.394804878954	50.021729194537
0	1385	1746.464920997858	49.014817960014
0	1387	1747.374567078858	49.573218923053
0	1389	1749.811502253296	45.8644023827
0	1397	1754.248558645597	43.532042074736
0	1399	1763.584242369993	50.763169368798
0	1401	1764.917591926663	48.643454672614
0	1403	1773.785208485675	54.294520713742
0	1408	1780.797514857284	55.91775576613
0	1410	1782.43016943314	49.793604065888
0	1412	1782.728973428795	44.346668786292
0	1423	1800.049697990564	56.910606308649
0	1428	1810.103702293174	66.464363487671
0	1433	1815.221680168153	65.05368922259
0	1438	1821.406982504897	67.933611845917
0	1443	1822.893024150717	43.469761070964
0	1445	1824.448789031691	34.854500157082
0	1459	1840.172616069712	47.748188297944
0	1461	1841.010916894445	46.020496458507
0	1463	1841.485365199553	32.72281324848
0	1465	1848.242279723846	35.499292957042
0	1467	1850.565385979475	30.809019672215
0	1472	1856.993297352406	35.077075784812
0	1477	1862.432146439099	36.302914090149
0	1479	1863.5199297197	30.869529675756
0	1481	1865.801913257163	27.691383079188
0	1483	1866.846491827542	28.623583770608
0	1485	1868.719871638283	18.090480382325
0	1490	1877.632273651876	17.010530617146
0	1492	1880.723551716431	7.943896907758
0	1497	1889.107025638773	0.154864881766
0	1505	1895.781629664642	5.58801695968
0	1507	1897.044848878478	6.326478554347
0	1515	1901.189557737385	2.428186603082
0	1520	1910.700477051122	10.568825660409
0	1534	1933.056303666271	29.412200588862
0	1548	1942.650706203466	28.763853126655
0	1553	1946.980945868311	31.08379994063
0	1555	1949.236955803695	25.085862842316
0	1557	1951.227550311829	20.249693853961
0	1559	1954.452306424559	20.72967172436
0	1564	1968.15830620977	30.708730684024
0	1566	1969.614268430958	30.74676752633
0	1571	1970.111690821545	30.749186058668
0	1573	1970.845913035275	25.035284124683
0	1581	1986.865771571027	22.329838950717
0	1583	1988.208429348112	18.338188903844
0	1588	1990.78333186475	18.96563952433
0	1590	1998.138062077063	24.510544538394
0	1592	2006.48325540755	16.790933743323
0	1598	2012.824493191686	0
0	1603	2029.448724721297	0
0	1628	2063.880021074852	28.319640953698
0	1633	2065.367499781082	26.031621985238
0	1641	2069.378183384896	28.397699072129
0	1652	2075.994492427263	32.225426873244
0	1657	2078.330314164635	28.079899723299
0	1671	2087.336482275892	30.469869264556
0	1679	2105.378247246924	47.796686586041
0	1681	2107.077373215039	46.438945364228
0	1692	2115.602809820068	51.544729365541
0	1694	2120.699586600256	53.019801074072
0	1699	2127.430105106314	58.815935357016
0	1704	2135.83307190852	63.744850028502
0	1706	2136.118140102708	63.676626380453
0	1708	2136.292814651923	60.899786959302
0	1710	2143.214217799958	65.076612460794
0	1715	2146.831168228442	65.566350743346
0	1726	2155.305781490122	73.508023591879
0	1728	2159.901673445014	77.75602370485
0	1730	2159.942158413356	76.44175204894
0	1735	2161.996603630687	67.894039790637
0	1737	2166.16600068414	66.707373942755
0	1745	2184.007280759615	73.437614489467
0	1747	2190.498185467099	78.346085940796
0	1749	2190.524236874023	77.254291040029
0	1754	2192.288981519119	69.512697316262
0	1756	2194.545496620349	59.509076550497
0	1767	2222.370021613589	75.852243744082
0	1772	2224.954801614923	78.082131034023
0	1774	2232.322936064738	84.068756167579
0	1776	2235.639231614481	81.917177963027
0	1781	2239.767539314893	78.985825800172
0	1783	2240.557649295586	67.593632085771
0	1788	2244.150374981206	60.63995236718
0	1796	2251.863350673805	60.990934922129
0	1801	2259.644860061806	63.257739162419
0	1803	2260.880067218187	44.953030037804
0	1805	2262.135876755655	41.974533813165
0	1810	2264.947676133104	41.894767945916
0	1812	2264.991631889223	28.458181830044
0	1814	2272.972689263683	32.061029664458
0	1816	2274.843615613575	28.128135634718
0	1821	2282.049315024333	32.153741273384
0	1826	2287.899030190952	28.309358385127
0	1831	2294.778526348321	32.19813189928
0	1833	2295.392638611466	17.501324897489
0	1841	2305.630637800317	20.787025019735
0	1843	2307.816675806978	16.616457274847
0	1848	2308.809493462383	12.061139800018
0	1850	2309.485415618726	8.601905438733
0	1852	2314.184615582415	5.555377215219
0	1858	2315.172592429489	0
0	1863	2317.959178333766	0
0	1868	2321.480882196561	0
0	1873	2330.593734287151	0
1	5	7.370416270017	3.676052141553
1	13	15.395501714153	4.130624267749
1	18	18.106098209843	6.691470465405
1	20	22.682753920318	5.805743652494
1	25	40.241649097841	5.109243462837
1	30	59.978846705123	1.566944309
1	38	63.146408853592	1.645162484998
1	43	64.669250052264	1.540249317767
1	48	66.258991126974	2.984936825599
1	50	67.944598762369	3.198791277623
1	55	71.453110007042	3.50683942986
1	63	105.643367020046	13.583794906915
1	65	107.677120397735	8.827037585429
1	70	112.056670287882	1.547547639341
1	75	114.595095654297	0.89599889572
1	83	130.0576289909	6.2517377725
1	88	132.755803747305	4.642589302175
1	90	135.928291725242	3.710606718771
1	104	181.981094232353	24.463644105895
1	112	190.945938862932	31.830880783327
1	123	199.813292875089	27.989263869471
1	128	201.020771186639	27.525186175747
1	130	202.682051085325	15.667832033882
1	132	206.350485581302	18.611906593646
1	134	207.191729662046	13.729680595991
1	136	207.817821594004	12.93538328266
1	138	208.290328401534	11.052521722227
1	143	212.52810310724	11.549225090163
1	148	216.026943961999	4.763624909105
1	150	217.301780509568	2.9676894886
1	158	244.607222947699	22.550326604356
1	160	246.167170127769	19.121294864603
1	186	285.75704855348	32.22756742802
1	188	288.856719788495	33.282695692201
1	190	292.018753906983	25.499939658299
1	192	297.284144260496	26.874682828529
1	194	299.359274231203	25.02811595582
1	205	313.416460374446	34.227890842468
1	210	319.94803105287	40.422656656317
1	215	327.617983198284	46.193138136918
1	217	339.103506806543	39.22774655048
1	219	339.954028151985	31.639313196251
1	224	350.012459283044	39.90885775568
1	226	353.749204362988	34.93515610077
1	231	354.305271127096	32.513349666793
1	233	356.326199769396	9.184581053583
1	241	372.975765142603	18.966900659288
1	246	374.203491408145	10.588349089904
1	248	379.830838893582	10.909505529226
1	259	402.659551323371	29.184740842818
1	261	402.808229407278	17.908063429786
1	263	404.986779131723	12.97070497989
1	265	407.825844342159	10.57753373725
1	273	414.214181060239	5.991576671807
1	275	420.054724318661	6.20166982991
1	292	485.840995366954	24.33668825766
1	300	493.860710191421	31.859062629882
1	308	503.086728301281	37.508870806556
1	313	509.263528004446	40.509628076405
1	321	515.001498714292	32.529756875544
1	323	520.007604030023	33.217425244813
1	325	521.791655220544	29.785846506707
1	327	522.628952224676	24.767698408727
1	329	526.043594768988	26.390123127326
1	334	529.617809596003	26.237566714872
1	339	531.90256152713	21.66696911491
1	344	538.277206279062	27.002702266933
1	346	545.001534026041	17.454883027301
1	348	546.304493072787	16.435529724673
1	350	548.736076429074	14.743042061629
1	361	570.04607900243	1.755015203072
1	375	586.053357330295	16.455684307171
1	380	588.959138336339	19.206403708041
1	382	592.162718982358	21.686439889434
1	390	596.46136184115	16.202497401351
1	392	598.496904404876	17.920968069976
1	412	625.183477860706	42.075210679353
1	423	634.585788969777	47.267859901567
1	428	641.114316552038	45.907632669653
1	436	648.292100978258	52.143383740598
1	438	650.005883017882	49.033657767644
1	452	664.642529046503	58.873348937255
1	454	667.815083734434	59.062103734726
1	456	668.485977658086	57.291148259004
1	458	674.702592054477	56.248014186394
1	460	680.921498144022	59.854950968375
1	462	682.241659565789	54.739441537733
1	464	682.630483989509	48.851009373466
1	472	688.475543221432	54.472889243029
1	474	690.786204472658	52.790556265308
1	476	692.15003656049	46.219765620746
1	478	696.056464537357	50.096036622001
1	483	697.707740584175	47.372423936769
1	488	699.060614067959	44.979204545816
1	493	701.677203784926	45.829267117525
1	495	701.720112583204	44.912089693236
1	503	703.01461642172	18.391713963154
1	508	704.669369348104	17.01592379183
1	510	705.002735185074	7.961064708963
1	512	705.883386133473	7.53618936829
1	520	715.9108271284	14.977707549099
1	525	718.765142035005	16.722591830514
1	536	726.029832872837	23.529226802346
1	538	726.175741353082	22.845856373685
1	540	732.653357592245	25.756210131647
1	542	735.849153907205	25.841480156832
1	547	737.644620473349	20.689668118344
1	555	748.264902386441	27.310261151548
1	566	761.833062967005	40.43629669137
1	571	765.798661357771	39.899450296054
1	573	767.560632367455	30.945348317959
1	575	767.813320899728	27.684668683204
1	580	774.02185777406	32.877151897531
1	582	776.791838528665	28.091597521075
1	584	779.567873550736	28.302306153912
1	586	783.333296210599	22.0043444389
1	591	787.658995306546	23.978350805085
1	596	789.185255601727	15.214542476675
1	601	790.151201475183	3.330424250868
1	603	791.243342985082	2.462626320778
1	608	794.470097509489	4.903242428312
1	610	794.681813939063	0.955062321215
1	615	795.369234160543	0.640162526127
1	620	800.457422750098	0.011637573699
1	625	814.31199129685	0.071100916424
1	630	824.880354241882	4.981769182874
1	635	853.963877235352	6.488717137744
1	640	854.977291506169	0.864700573137
1	648	876.140206514306	10.577871299656
1	653	879.765802364733	4.709749042563
1	658	883.001311896683	3.688593988866
1	663	888.9171077531	7.970098364212
1	665	889.014284061283	3.511973861694
1	673	897.308730791889	8.29224834798
1	675	908.189623097534	13.112663325576
1	683	922.061814957204	10.734340394845
1	685	922.079840272257	5.438934142457
1	690	940.628965723648	1.967897465722
1	695	948.765118903429	1.182975267917
1	700	953.124263195793	4.044625743427
1	705	973.176188272884	0.237050108341
1	716	985.082000257856	5.085242959832
1	718	985.949226697205	3.542410870651
1	720	989.371502107826	4.789190475812
1	725	999.852707331796	6.365735574345
1	730	1002.560160427453	1.838773727341
1	741	1023.938137375123	12.721585525719
1	743	1024.49537300194	10.307947218273
1	748	1025.740155866789	7.856525956554
1	750	1030.908836082392	6.174355370045
1	755	1035.293168067061	3.409469196553
1	766	1049.026665563796	10.402687284286
1	771	1049.834730594712	2.41215525986
1	779	1052.862373167012	5.091780615323
1	784	1057.113306871626	7.853289469171
1	786	1059.03289118059	8.405716432832
1	791	1068.886439145974	16.49601311302
1	793	1074.304687591491	20.582521595058
1	801	1080.63730979972	12.782977454098
1	809	1088.234459903223	11.590015300473
1	811	1095.203979819526	18.517198765385
1	822	1105.504283780616	23.842873115059
1	827	1106.268833164676	22.752783588978
1	838	1113.460531130921	16.462798554212
1	840	1114.812065358283	13.920010650222
1	845	1120.494392943996	17.893166997247
1	853	1126.277203806126	20.61750945903
1	867	1141.081283254943	34.0102473799
1	869	1141.777572136968	34.42072828497
1	871	1142.196350014202	31.871289819217
1	876	1145.363928275076	28.512628763096
1	878	1146.633968036657	25.173183916637
1	880	1148.380792455851	22.783077593886
1	882	1159.683798575523	31.421790153975
1	884	1168.0394453217	39.267617063515
1	886	1173.331775756196	38.691965467689
1	888	1175.438493644075	36.37928352943
1	893	1176.390130780097	33.634530542085
1	895	1176.805943062771	0.953268531886
1	903	1181.082316785815	0.399915389893
1	905	1183.817396826205	2.828436982377
1	922	1208.00818345955	13.792915274325
1	924	1209.477862133433	14.337458225924
1	929	1211.740936978387	16.583030668468
1	931	1212.582257328854	12.92282969893
1	933	1217.139981553851	17.445987764183
1	935	1218.399927501625	6.843470566136
1	943	1238.254780732046	19.327337057611
1	945	1239.275642582556	19.082725589532
1	950	1254.471725117146	2.492713048683
1	964	1261.414726093849	5.749620088522
1	969	1263.24203147899	6.886025285755
1	974	1268.710269696166	9.323347528065
1	976	1278.628396438584	18.347188718144
1	978	1283.572768090948	21.518559316263
1	980	1284.413006032421	16.390455166415
1	994	1295.294629726466	9.578456783093
1	999	1298.242181264979	10.860644511044
1	1007	1305.864295849439	18.04802107109
1	1021	1314.444713153373	21.61037329666
1	1026	1320.0116852868	23.493770183802
1	1028	1320.727161531686	20.982486313666
1	1033	1321.58307835444	20.217128279185
1	1035	1334.337000091556	28.428004571464
1	1037	1337.980845928457	31.655387902666
1	1042	1340.555003947445	31.943076181445
1	1047	1350.682619306039	37.570324517603
1	1052	1355.230153448069	40.724585199972
1	1057	1359.548455797532	38.038921315462
1	1059	1360.256676358551	21.038252460401
1	1064	1375.857896781335	26.57260660403
1	1069	1379.578108265728	25.842770614842
1	1074	1382.163980686964	26.260917497984
1	1082	1389.636467783742	17.356041559366
1	1084	1390.563991346384	13.441582560226
1	1092	1397.739612208442	15.865444547916
1	1094	1399.082799643392	13.055977254966
1	1099	1413.445180802808	27.034143753984
1	1107	1416.825304186778	20.85372761006
1	1109	1418.103079921106	22.00115655927
1	1114	1418.507891805613	7.006816309214
1	1119	1419.755576528957	5.208631258142
1	1121	1430.563293984441	14.448765529523
1	1123	1431.57781742303	13.24913301392
1	1125	1431.743620152359	12.05804955205
1	1130	1457.861995144715	0.714301500327
1	1135	1468.867186894675	5.279697623023
1	1140	1474.966590509749	3.362308050719
1	1145	1486.974782348027	5.205610450845
1	1150	1492.86770144991	0.640474586687
1	1155	1497.77115380358	0.204141781555
1	1160	1501.261741151616	0.752577939121
1	1168	1512.158527777025	8.508517731161
1	1176	1516.114902346894	10.976009781036
1	1178	1518.043255126702	5.844073765882
1	1180	1518.194175655335	2.967321733534
1	1185	1527.691445709736	1.427385345145
1	1190	1529.668643723207	0.49303064578
1	1198	1542.901194068191	6.648552693014
1	1203	1545.709114967635	6.176381478983
1	1205	1549.375050865209	6.122178315592
1	1213	1552.983455821645	0.927023232144
1	1218	1553.462085900123	1.086226084482
1	1223	1560.31811355679	6.863670275943
1	1225	1561.951378700033	4.260649731369
1	1230	1563.455599490832	0.395378708779
1	1244	1582.847423256008	12.790268233833
1	1246	1583.230756893926	10.776147385701
1	1248	1585.027216773509	12.570349742167
1	1253	1589.524708242008	8.939705539707
1	1255	1598.537295468548	13.212318660407
1	1263	1609.70686427976	3.363714206015
1	1265	1609.722393813738	1.150201571311
1	1270	1611.127078820863	1.373001714508
1	1275	1615.325217288981	1.823957927029
1	1295	1643.701920633559	27.854989195288
1	1297	1646.275169141734	25.730729035218
1	1302	1647.823242130327	24.6232095397
1	1310	1658.233235736862	30.051978523859
1	1318	1666.123481944011	33.313427805733
1	1320	1675.542373851206	37.465154957204
1	1331	1692.779732451256	45.423601715404
1	1333	1694.773665700382	45.371006980147
1	1344	1698.403263851303	48.413340858018
1	1358	1718.677302451537	60.134663502343
1	1363	1719.591233612344	55.440397748877
1	1368	1731.823688114844	54.362998884877
1	1376	1741.331215740916	57.450517527478
1	1384	1745.394804878954	59.388722415641
1	1386	1746.464920997858	51.091845313441
1	1388	1747.374567078858	49.924464041014
1	1390	1749.811502253296	52.010154097491
1	1398	1754.248558645597	50.301458775001
1	1400	1763.584242369993	52.867725799132
1	1402	1764.917591926663	52.096518925468
1	1404	1773.785208485675	57.511071231626
1	1409	1780.797514857284	61.306827085351
1	1411	1782.43016943314	57.550410341986
1	1413	1782.728973428795	50.092408061543
1	1424	1800.049697990564	61.667393348061
1	1429	1810.103702293174	66.964610611259
1	1434	1815.221680168153	71.58234136265
1	1439	1821.406982504897	71.238991559334
1	1444	1822.893024150717	69.419653491737
1	1446	1824.448789031691	45.025525951938
1	1460	1840.172616069712	50.578327195103
1	1462	1841.010916894445	48.586489122677
1	1464	1841.485365199553	46.494944763615
1	1466	1848.242279723846	39.479727772773
1	1468	1850.565385979475	37.822399212671
1	1473	1856.993297352406	37.236931045146
1	1478	1862.432146439099	40.515924871505
1	1480	1863.5199297197	37.39069737075
1	1482	1865.801913257163	33.151513213219
1	1484	1866.846491827542	28.735961649567
1	1486	1868.719871638283	30.496963581349
1	1491	1877.632273651876	27.002882395918
1	1493	1880.723551716431	20.101808681701
1	1498	1889.107025638773	16.3273708301
1	1506	1895.781629664642	6.829468907635
1	1508	1897.044848878478	6.851236173516
1	1516	1901.189557737385	10.471187413254
1	1521	1910.700477051122	11.939105916819
1	1535	1933.056303666271	32.924652275558
1	1549	1942.650706203466	39.006603126057
1	1554	1946.980945868311	33.0940927915
1	1556	1949.236955803695	33.339809876014
1	1558	1951.227550311829	27.07645735045
1	1560	1954.452306424559	23.474449966691
1	1565	1968.15830620977	34.435671509571
1	1567	1969.614268430958	32.164692905212
1	1572	1970.111690821545	31.244189916917
1	1574	1970.845913035275	31.483408272398
1	1582	1986.865771571027	41.055142660435
1	1584	1988.208429348112	23.672496727802
1	1589	1990.78333186475	20.913091420482
1	1591	1998.138062077063	26.320369736643
1	1593	2006.48325540755	32.855737868881
1	1595	2006.773301860919	17.080980196692
1	1600	2013.157291878762	0.332798687076
1	1629	2063.880021074852	34.431296353555
1	1634	2065.367499781082	29.807119659928
1	1642	2069.378183384896	30.042305589052
1	1653	2075.994492427263	35.014008114496
1	1658	2078.330314164635	34.561248610616
1	1672	2087.336482275892	37.086067834556
1	1680	2105.378247246924	48.511634235588
1	1682	2107.077373215039	49.495812554156
1	1693	2115.602809820068	54.964381969257
1	1695	2120.699586600256	56.641506145729
1	1700	2127.430105106314	59.75031958013
1	1705	2135.83307190852	67.218902159222
1	1707	2136.118140102708	64.02991822269
1	1709	2136.292814651923	63.851300929668
1	1711	2143.214217799958	67.821190107337
1	1716	2146.831168228442	68.693562889278
1	1727	2155.305781490122	74.040964005026
1	1729	2159.901673445014	78.103915546771
1	1731	2159.942158413356	77.796508673192
1	1736	2161.996603630687	78.496197266271
1	1738	2166.16600068414	72.06343684409
1	1746	2184.007280759615	84.54865401823
1	1748	2190.498185467099	79.928519196951
1	1750	2190.524236874023	78.37213734772
1	1755	2192.288981519119	79.019035685125
1	1757	2194.545496620349	71.769212417492
1	1768	2222.370021613589	87.333601543737
1	1773	2224.954801614923	78.437023745416
1	1775	2232.322936064738	85.450265483838
1	1777	2235.639231614481	87.385051717322
1	1782	2239.767539314893	86.045485663439
1	1784	2240.557649295586	79.775935780865
1	1789	2244.150374981206	71.186357771391
1	1797	2251.863350673805	68.352928059779
1	1802	2259.644860061806	68.77244431013
1	1804	2260.880067218187	64.4929463188
1	1806	2262.135876755655	46.208839575272
1	1811	2264.947676133104	44.786333190614
1	1813	2264.991631889223	41.938723702035
1	1815	2272.972689263683	36.439239204504
1	1817	2274.843615613575	33.93195601435
1	1822	2282.049315024333	35.333835045476
1	1827	2287.899030190952	38.003456440003
1	1832	2294.778526348321	35.188854542496
1	1834	2295.392638611466	32.812244162425
1	1842	2305.630637800317	27.73932408634
1	1844	2307.816675806978	22.973063026396
1	1849	2308.809493462383	17.609274930252
1	1851	2309.485415618726	12.737061956361
1	1853	2314.184615582415	13.301105402422
1	1855	2315.048284177411	6.419045810215
1	1860	2316.347232297248	1.174639867759
1	1865	2319.877571894343	1.918393560577
1	1870	2326.189098226658	4.708216030097
1	1875	2331.086735057381	0.49300077023
