version 2
run Testbench_1-1429-20170516-19:23:11-61892
attr configname Testbench_1
attr datetime 20170516-19:23:11
attr experiment Testbench_1
attr inifile omnetpp.ini
attr iterationvars $0=375
attr iterationvars2 "$0=375, $repetition=29"
attr measurement $0=375
attr network Toll_road
attr processid 61892
attr repetition 29
attr replication #29
attr resultdir results
attr runnumber 1429
attr seedset 1429
param **.numBooths 3
param **.queue[*].serviceTime exponential(5.11s)
param **.source.interArrivalTime exponential(5.854s)
param **.source.numJobs 1000

vector 0  Toll_road.queue[0]  jobsProcessed:vector  ETV
attr interpolationmode  none
attr source  queueingTime
attr title  "jobs processed, vector"
vector 1  Toll_road.sink  lifeTime:vector  ETV
attr interpolationmode  none
attr title  "lifetime of arrived jobs, vector"
attr unit  s
0	3	0.252555586413	0
0	8	3.495770172349	0
0	13	14.802332456856	0
0	18	22.934055949696	0
0	23	36.457723290072	0
0	28	40.840918501987	0
0	33	48.187498540407	0
0	52	75.096843028269	25.211407098311
0	54	75.626605559216	24.178152830178
0	59	82.08475519021	23.595339448185
0	73	95.351420241439	35.584435027834
0	81	107.398113548283	46.874636237504
0	83	110.98496175035	47.996988761217
0	85	111.807119726981	30.087184958661
0	90	116.974702008604	33.491799625813
0	98	128.501024401895	43.807170188574
0	100	133.909389216696	43.545541442706
0	102	134.023208747427	42.518460372943
0	107	136.450142101576	33.266018726469
0	109	137.033604296604	31.496542713877
0	114	139.638230332259	25.779103832289
0	119	142.55556062276	21.766933095867
0	121	143.520538183786	18.252471523855
0	126	148.910045420412	14.723329429413
0	128	149.437771024158	11.655734039696
0	130	149.623779680677	9.678719252682
0	141	161.436079697337	12.72628554729
0	146	162.870328167376	4.122965969523
0	151	164.970269048895	5.480587814032
0	159	177.108671197821	17.479499837839
0	164	188.040845240321	26.267051743492
0	178	198.72916627552	35.596949422065
0	180	199.628400700813	25.024672035997
0	182	204.907131296445	28.734904964643
0	184	205.620710945117	25.899939399068
0	186	208.171841454552	19.384096543024
0	188	209.25356418166	19.661084220291
0	190	216.046233646248	26.109595464541
0	201	228.763160091721	38.694702409734
0	206	230.435858289031	8.961296164935
0	208	230.776652945878	3.393365076918
0	210	232.21864311766	4.445753636603
0	212	233.117482840109	3.641443683713
0	218	237.399990752353	0
0	223	261.608084935964	0
0	228	265.859610335027	0
0	232	277.654299550291	2.376468486038
0	238	283.837436745141	0
0	245	289.865302249326	2.978243048287
0	250	293.651163789906	4.520517577881
0	255	297.277193605749	7.076261343224
0	257	298.02208092054	3.141953975708
0	265	311.617656814999	10.712591130498
0	267	318.997660904131	9.155401108622
0	273	323.361644201426	0
0	277	334.903188488634	5.346337898143
0	283	340.022465106552	0
0	287	345.374020107039	4.785004164112
0	298	358.32815952027	10.808604437569
0	300	360.203004713129	5.607028252362
0	305	364.664167202649	7.112220952022
0	307	376.066807515264	15.86344951794
0	313	389.343174627937	0
0	318	398.871814369367	0
0	322	407.027140672694	5.124762972194
0	328	408.722734440591	0
0	332	411.873632506562	0.211278266633
0	337	418.586111949022	2.686984337792
0	342	422.713321673683	2.493173336335
0	359	453.453035801375	27.191396602828
0	364	457.168555085179	22.007190884479
0	366	459.070299927005	17.057234728418
0	368	462.081380460776	19.842048066103
0	385	479.416478586802	35.524528480069
0	390	483.666085023962	26.671743398911
0	392	483.799080380524	21.480072580249
0	394	485.74058293223	21.541065315029
0	396	488.239611863117	19.844688028198
0	407	514.713290104697	44.430165452738
0	409	516.299908831027	45.15095141392
0	411	517.336851638433	36.638543790636
0	413	517.67789205199	19.561006978085
0	418	521.558578331522	22.647298818355
0	420	531.040738814355	22.346111210292
0	422	531.798717505363	13.075552755265
0	428	547.45285413709	0
0	433	549.883646335174	0
0	440	570.916353214468	8.638013530086
0	442	579.316170384512	10.649439673791
0	453	591.057426811306	11.551935920014
0	461	596.119223321293	12.424295258048
0	463	596.278629744223	10.956939468623
0	465	596.756435400743	2.422736193884
0	467	600.843661174687	4.961138667705
0	473	607.523780721313	0
0	477	617.502893648804	8.852772242968
0	483	621.199257452536	0
0	487	622.22494423523	0.748285585037
0	495	633.768563236028	7.769027218041
0	497	636.658679802929	4.09163969331
0	503	642.97981525792	0
0	508	648.173022470699	0
0	512	655.275984499898	1.674809271868
0	518	666.418665616841	0
0	523	675.774083832688	0
0	527	679.268395530354	0.132717233406
0	532	695.617099349329	8.715895332704
0	538	716.400685411013	0
0	542	722.149352588243	5.619816187948
0	548	726.334943119559	0
0	558	735.977157373961	8.495879903016
0	560	737.48290363266	4.293039789235
0	562	737.886470067105	3.571541182157
0	568	747.530806153247	0
0	575	749.989318628491	1.129835666548
0	577	754.192030778947	4.583358386497
0	582	757.590153264035	2.787411098607
0	593	778.935326218109	16.459081773349
0	598	782.337741281833	18.650504445278
0	603	788.239103000823	23.14416723217
0	605	790.692633836019	11.102247875375
0	616	797.985114144199	14.363344159464
0	618	798.021158870843	4.092517593458
0	620	799.096681281	3.714863406865
0	622	799.621246190694	2.432943387262
0	627	804.268215210357	4.299505514068
0	633	809.530428296485	0
0	638	810.363526947995	0
0	643	812.803668680416	0
0	648	818.803941648551	0
0	653	832.874332139201	0
0	663	847.371360638185	6.172089844475
0	665	847.950254831566	6.268411831209
0	667	848.249642017726	3.001017696227
0	675	863.043834047746	10.232792366606
0	677	875.713490204758	14.08368960621
0	683	891.935369161697	0
0	687	902.407613676409	10.463790695999
0	693	917.217708895269	0
0	700	921.900696381634	2.711991307515
0	702	925.898803638264	5.965100432534
0	710	937.948147519553	11.712513062539
0	715	941.52192288228	14.037280121063
0	720	944.456410865118	5.930152669222
0	722	946.259715650504	2.006465576312
0	728	956.893274741134	0
0	738	968.724422050304	10.590660081095
0	743	974.610723261241	13.488133466496
0	745	977.303939356131	11.658555954961
0	750	984.972197512618	10.646148171083
0	755	986.589001632091	7.88714292602
0	757	989.953128207729	4.16864886477
0	763	999.49818280432	0
0	768	1000.578245466391	0
0	775	1001.953070173415	0.968391176698
0	777	1006.884005842848	5.489211496097
0	791	1026.039533588774	16.346241356931
0	796	1034.974087623392	22.093237265207
0	801	1040.201947720101	22.000143413682
0	806	1041.103511166351	20.082121694619
0	811	1052.189806556608	19.636140726291
0	816	1055.210475783059	15.487781384702
0	821	1060.21405517718	19.332909213656
0	823	1063.709277059854	16.523114352155
0	825	1066.357755227783	11.343326604491
0	827	1066.980314471557	11.05768210019
0	833	1070.296219926346	0
0	843	1085.868744182726	11.861049665291
0	845	1087.307960159082	9.379614313407
0	847	1087.308627812921	1.859944429385
0	853	1104.724524764077	0
0	860	1115.453219715455	10.352396232331
0	865	1119.549680089989	5.449711960231
0	870	1138.402815111565	21.862390127921
0	875	1143.661982205678	14.528350234772
0	880	1151.453344414131	9.702170062363
0	882	1151.737554639162	1.036064109991
0	890	1164.508330073911	11.364831018355
0	892	1164.748308043133	1.712914850701
0	898	1174.553364909249	0
0	902	1177.814831788447	1.162702418453
0	907	1182.493781345757	2.586914236638
0	913	1204.507059299973	0
0	923	1217.048553782711	11.339653057712
0	931	1223.983886315736	7.551264523538
0	936	1230.697216804166	13.950951586994
0	947	1237.994823949633	19.004503744509
0	952	1239.188426488631	16.446120085758
0	963	1253.710796018385	23.646095221442
0	974	1266.141500780251	34.144408596254
0	982	1272.505633898614	38.068029887579
0	996	1293.231344572436	58.567050054471
0	1004	1306.147170711743	67.76010685495
0	1009	1314.834283508705	73.409796998893
0	1011	1329.057325833525	82.777134626004
0	1019	1335.394640386172	84.950455042893
0	1024	1340.32390351986	86.089372788577
0	1029	1342.045900933314	87.137426537056
0	1031	1342.71273779567	79.00391099047
0	1036	1345.298958954058	75.533777208159
0	1038	1350.518678679417	78.099935747587
0	1043	1360.166529685549	76.167904899507
0	1048	1364.387270170023	79.083768848833
0	1053	1367.155962099364	79.794486214195
0	1058	1369.431573630525	78.902205919891
0	1060	1372.317829511329	76.620195862553
0	1062	1372.506851490469	70.566492255845
0	1067	1381.764682781566	75.231216679461
0	1072	1382.495199028287	53.054339671092
0	1083	1389.250374691677	57.976307877587
0	1094	1393.868261347565	54.550496951486
0	1096	1396.766738727356	54.850545631589
0	1098	1397.870581384437	52.714848705736
0	1100	1398.13076827549	42.957740110971
0	1111	1413.206248608542	51.219277905088
0	1122	1429.648285722396	64.404794100259
0	1127	1439.404392202801	71.892154834173
0	1129	1447.875364066873	72.553959171249
0	1134	1448.006148180798	65.907509725017
0	1139	1451.798314022587	68.147834731232
0	1141	1458.318405080142	73.559273750203
0	1143	1468.54899137364	81.759764666176
0	1145	1480.221413010381	88.705114347773
0	1150	1481.881361359314	89.257260386654
0	1158	1498.888353609066	105.93690605366
0	1169	1510.199445484542	111.73031432288
0	1171	1511.200972741792	111.61424107632
0	1176	1518.927277117642	108.8741744488
0	1178	1520.100781751166	98.922945292633
0	1183	1527.198862858009	104.28490173593
0	1185	1528.165825129934	104.48253391652
0	1187	1528.970470957686	89.599377326704
0	1189	1529.047441913464	81.126032308982
0	1191	1529.135947092348	80.3561116735
0	1199	1542.418869411712	61.950986771756
0	1204	1546.316951191347	63.975139787648
0	1209	1547.345626180389	52.649441646631
0	1211	1547.47150446496	40.504293599578
0	1213	1554.805939259533	47.028807765004
0	1215	1563.400266354717	54.437568367506
0	1220	1567.013575745443	49.928573728188
0	1222	1567.774476300103	45.950452258443
0	1230	1568.890572251727	36.937971666821
0	1241	1582.531158228781	45.396976271142
0	1249	1590.671409103022	47.285898147905
0	1251	1592.315960178587	45.378844515802
0	1253	1592.864167848283	26.61021232304
0	1255	1592.98195516741	24.875433246838
0	1260	1599.178807050797	30.545766131416
0	1268	1601.953962739014	28.897702120582
0	1273	1606.261590517314	32.677982497403
0	1275	1606.467670365556	32.564400274744
0	1277	1613.406622884716	30.456245151579
0	1279	1614.299140532529	24.659389146781
0	1281	1614.927956527319	20.28406192993
0	1283	1615.452553071839	16.044951472117
0	1288	1623.807602327638	22.917555703245
0	1290	1633.510216031716	27.846355816258
0	1292	1640.47237760645	20.045953348635
0	1300	1646.275296018661	5.26359334744
0	1302	1647.2614105072	4.481891868999
0	1308	1652.124855760766	0
0	1313	1656.110662089944	0
0	1320	1663.762773154932	7.196244152706
0	1322	1664.695618943069	1.977599324907
0	1328	1674.052186996161	0
0	1338	1692.30951487826	10.859855809391
0	1346	1700.8119397899	12.750463830202
0	1348	1704.836546230083	13.814172054925
0	1356	1717.924780827224	24.986958653819
0	1358	1718.074120232793	19.632839048803
0	1360	1718.445478361639	12.268608372379
0	1362	1718.564755737693	1.667962334871
0	1370	1722.759701743698	3.757055156901
0	1372	1726.899839164737	7.367982410141
0	1380	1734.428400438474	5.829022253687
0	1388	1739.816436636846	10.76708115833
0	1390	1744.608336799066	6.378935453178
0	1395	1746.510172601576	6.766705671027
0	1397	1748.245845824953	2.868576057249
0	1403	1768.24787685445	0
0	1408	1769.165436006552	0
0	1413	1781.381776431205	0
0	1418	1791.816156120837	0
0	1425	1794.251479048012	1.774204867293
0	1430	1800.45075781704	7.595479362698
0	1432	1800.590651323582	0.451838036181
0	1437	1801.734748199121	0.762072467346
0	1443	1802.799612566119	0
0	1448	1808.078176029552	0
0	1453	1847.676361416384	0
0	1460	1859.694722313948	11.220925567199
0	1471	1878.033274582652	21.549950235422
0	1473	1878.651961933011	18.027429557666
0	1475	1882.755926008345	12.572082533492
0	1477	1883.456180325491	12.095561796005
0	1483	1884.69797510606	0
0	1488	1895.044840431321	0
0	1495	1902.074359518929	3.297163733939
0	1497	1906.450437825771	7.451277120551
0	1502	1919.220266291301	7.084575042452
0	1508	1923.537198766112	0
0	1512	1927.453632451849	3.835317634927
0	1517	1933.491108138274	3.395170005071
0	1528	1942.690645608828	6.46423832174
0	1542	1960.631921045626	22.061124173761
0	1547	1965.496023126881	24.548085150368
0	1549	1966.7609845792	23.116272373801
0	1551	1971.058626586008	26.585271148446
0	1553	1971.961386380015	23.341761498712
0	1561	1973.774907514603	17.267440310889
0	1563	1974.076249716967	9.585076382623
0	1565	1976.479914033078	4.189013300015
0	1570	1978.803546254164	6.059196317416
0	1572	1978.804298985615	1.294081963405
0	1578	1980.278134560005	0
0	1583	1983.152239709218	0
0	1588	1986.401812009766	0
0	1595	1997.184824536113	6.003743262548
0	1600	1997.628942731126	1.568603037616
0	1602	1998.759415269752	1.365293660647
0	1610	2002.113413503664	2.353622096116
0	1612	2002.387956819128	1.67915095952
0	1617	2005.408515319742	1.040369048922
0	1628	2019.471397913389	10.621192637264
0	1630	2028.48523857844	13.530301130084
0	1641	2032.361921490914	13.65707567202
0	1643	2049.124836392499	20.137409720028
0	1645	2051.550965784136	21.490807817152
0	1647	2053.080643855492	21.087168918942
0	1653	2070.986980683738	0
0	1658	2080.114634191049	0
0	1663	2083.142109897706	0
0	1667	2088.008950229844	3.833887844608
0	1673	2092.841143011487	0
0	1678	2100.164305946244	0
0	1683	2107.821606284734	0
0	1687	2113.103141375823	4.207803877752
0	1693	2113.793352818308	0
0	1697	2114.452867557423	0.182496482925
0	1714	2133.745885258329	13.963370152162
0	1716	2136.60190816515	12.664561898893
0	1718	2137.71143474216	10.635349643451
0	1729	2155.396446492506	25.146724650664
0	1731	2156.424055128867	25.567320462374
0	1739	2168.814415446098	30.067352925963
0	1744	2186.407880940328	39.965717089353
0	1746	2186.940738943297	35.336158470368
0	1748	2188.009641561136	21.3136505877
0	1750	2188.80806507569	21.989188853286
0	1752	2189.713317449208	18.410753684455
0	1757	2194.404795822646	0.661455454502
0	1763	2196.237422898906	0
0	1768	2203.412494227151	0
0	1781	2213.11345811409	9.417278834956
0	1798	2231.572243978771	24.665808197031
0	1803	2233.13537166567	24.739405033662
0	1811	2244.587395203614	35.466662337921
0	1816	2249.144983747433	28.068472709538
0	1824	2255.941048563256	33.610324631749
0	1835	2272.309914389853	48.046699216256
0	1840	2281.149856273319	55.858741954129
0	1842	2285.996746004758	58.235224670615
0	1847	2290.417275525552	57.689566816393
0	1849	2298.56234470462	59.314958471824
0	1854	2298.815728154531	57.322848402466
0	1856	2302.809179501394	57.956284421128
0	1858	2306.050868517942	53.006435600505
0	1860	2306.74567166542	51.036023181585
0	1862	2308.368125524339	46.179407427772
0	1864	2315.381435861603	49.873873677139
0	1867	2319.817524619649	48.403758695735
0	1869	2322.249174627998	44.457450173921
0	1871	2333.891710251971	46.123281628765
0	1873	2336.386569755057	37.790718618023
1	5	1.523940484336	1.271384897923
1	10	5.348864205041	1.853094032692
1	15	15.30724400585	0.504911548994
1	20	29.059982195611	6.125926245915
1	25	38.763515559937	2.305792269865
1	30	41.607760658688	0.766842156701
1	53	75.096843028269	26.909344487862
1	55	75.626605559216	25.741169629258
1	60	82.08475519021	30.636302461172
1	74	95.351420241439	36.862004499414
1	82	107.398113548283	47.631128334678
1	84	110.98496175035	50.461484439571
1	86	111.807119726981	48.819146737848
1	91	116.974702008604	35.254767240284
1	99	128.501024401895	45.018122019104
1	101	133.909389216696	49.215535003375
1	103	134.023208747427	43.659360973437
1	108	136.450142101576	44.945393727092
1	110	137.033604296604	33.849480921497
1	115	139.638230332259	34.101168749532
1	120	142.55556062276	28.69643412279
1	122	143.520538183786	22.731910656893
1	127	148.910045420412	23.641978760481
1	129	149.437771024158	15.251055033159
1	131	149.623779680677	11.841742696215
1	142	161.436079697337	21.491019269342
1	147	162.870328167376	14.160534017329
1	152	164.970269048895	6.222906851042
1	160	177.108671197821	17.618989962958
1	165	188.040845240321	28.411673880339
1	179	198.72916627552	36.955372778691
1	181	199.628400700813	36.496183847358
1	183	204.907131296445	30.303402631629
1	185	205.620710945117	29.448484613315
1	187	208.171841454552	28.451069908503
1	189	209.25356418166	20.465819270132
1	191	216.046233646248	26.453753684879
1	202	228.763160091721	38.826521910014
1	207	230.435858289031	40.367400607044
1	209	230.776652945878	9.302090821782
1	211	232.21864311766	4.8353552487
1	213	233.117482840109	5.344593359052
1	215	234.227510913618	4.751471757222
1	220	239.661300932922	2.261310180569
1	225	261.664430819026	0.056345883062
1	233	277.654299550291	11.794689215264
1	235	279.868383573995	4.590552509742
1	246	289.865302249326	6.027865504185
1	251	293.651163789906	6.764104588867
1	256	297.277193605749	8.146547393724
1	258	298.02208092054	7.821148658015
1	266	311.617656814999	16.737529870167
1	268	318.997660904131	18.09259521963
1	270	322.080652422653	12.238392627144
1	278	334.903188488634	11.541544287208
1	280	335.677542005045	6.120691414554
1	288	345.374020107039	5.351555000487
1	299	358.32815952027	17.739143577343
1	301	360.203004713129	12.683449630428
1	306	364.664167202649	10.068190741882
1	308	376.066807515264	18.514861264637
1	310	378.984653779568	18.781295782244
1	315	390.91116125566	1.567986627723
1	323	407.027140672694	8.155326303327
1	325	407.965342195774	6.062964495274
1	333	411.873632506562	3.150898065971
1	338	418.586111949022	6.923757709093
1	343	422.713321673683	6.814194062453
1	360	453.453035801375	33.232887464027
1	365	457.168555085179	30.906915886632
1	367	459.070299927005	23.908935726305
1	369	462.081380460776	20.068315262189
1	386	479.416478586802	37.177146192129
1	391	483.666085023962	39.774134917229
1	393	483.799080380524	26.804738755473
1	395	485.74058293223	23.421575131955
1	397	488.239611863117	24.040094245916
1	408	514.713290104697	46.318366269778
1	410	516.299908831027	46.016784179068
1	412	517.336851638433	46.187894221326
1	414	517.67789205199	36.979584204193
1	419	521.558578331522	23.441693257617
1	421	531.040738814355	32.129459301188
1	423	531.798717505363	23.1040899013
1	425	532.302912491395	13.579747741297
1	430	548.697137903983	1.244283766893
1	441	570.916353214468	21.032706879294
1	443	579.316170384512	17.03783070013
1	454	591.057426811306	22.390696100585
1	462	596.119223321293	16.613732430001
1	464	596.278629744223	12.583701680978
1	466	596.756435400743	11.434745125143
1	468	600.843661174687	6.509961967828
1	470	607.154219655606	11.271697148624
1	478	617.502893648804	9.979112927491
1	480	618.739777373608	10.089655967772
1	488	622.22494423523	1.025686782694
1	496	633.768563236028	12.291904585835
1	498	636.658679802929	10.659143784942
1	500	640.582169217236	8.015129107617
1	505	646.291991666325	3.312176408405
1	513	655.275984499898	7.102962029199
1	515	655.307779341874	1.706604113844
1	520	674.472115531559	8.053449914718
1	528	679.268395530354	3.494311697666
1	533	695.617099349329	16.481421052381
1	535	698.296870925012	11.395666908387
1	543	722.149352588243	5.74866717723
1	545	723.971395724601	7.441859324306
1	559	735.977157373961	9.642214254402
1	561	737.48290363266	10.001626161715
1	563	737.886470067105	4.69660622368
1	565	738.608597374322	4.293668489374
1	576	749.989318628491	2.458512475244
1	578	754.192030778947	5.332547817004
1	583	757.590153264035	7.981480871585
1	594	778.935326218109	24.132584052681
1	599	782.337741281833	19.861496837073
1	604	788.239103000823	24.551866164268
1	606	790.692633836019	25.597698067366
1	617	797.985114144199	18.394728183555
1	619	798.021158870843	14.399388886108
1	621	799.096681281	5.168040003615
1	623	799.621246190694	4.239428316559
1	628	804.268215210357	7.079912406925
1	630	805.909115884079	5.94040618779
1	635	810.210354963623	0.679926667138
1	640	810.812291891265	0.44876494327
1	645	818.364450259003	5.560781578587
1	650	820.233158480182	1.429216831631
1	664	847.371360638185	14.497028498984
1	666	847.950254831566	6.750984037856
1	668	848.249642017726	6.567799017369
1	676	863.043834047746	17.795209726247
1	678	875.713490204758	22.902448523618
1	680	880.754630246393	19.124829647845
1	688	902.407613676409	10.472244514712
1	690	907.023040829571	15.079217849161
1	701	921.900696381634	4.682987486365
1	703	925.898803638264	6.710098564145
1	711	937.948147519553	18.014444313823
1	716	941.52192288228	15.286288425266
1	721	944.456410865118	16.971768103901
1	723	946.259715650504	7.733457454608
1	725	953.556181095646	9.302931021454
1	739	968.724422050304	11.83114730917
1	744	974.610723261241	16.476961292032
1	746	977.303939356131	16.181349561386
1	751	984.972197512618	19.326814111448
1	756	986.589001632091	12.262952290556
1	758	989.953128207729	11.251269501658
1	760	992.408716859256	6.624237516297
1	765	999.636675983552	0.138493179232
1	776	1001.953070173415	1.374824707024
1	778	1006.884005842848	5.899326846131
1	792	1026.039533588774	24.644739242023
1	797	1034.974087623392	25.280795391549
1	802	1040.201947720101	27.321097361916
1	807	1041.103511166351	22.901706859932
1	812	1052.189806556608	31.168417084876
1	817	1055.210475783059	22.656809952742
1	822	1060.21405517718	20.491360778823
1	824	1063.709277059854	22.82813109633
1	826	1066.357755227783	19.171592520084
1	828	1066.980314471557	11.965885848265
1	830	1069.241847687613	13.319215316246
1	844	1085.868744182726	15.57252425638
1	846	1087.307960159082	13.300265641647
1	848	1087.308627812921	9.380281967246
1	850	1096.681899482774	11.233216099238
1	861	1115.453219715455	10.728694951378
1	866	1119.549680089989	14.448856606865
1	871	1138.402815111565	24.302846981807
1	876	1143.661982205678	27.121557222034
1	881	1151.453344414131	22.319712443225
1	883	1151.737554639162	9.986380287394
1	891	1164.508330073911	13.80683954474
1	893	1164.748308043133	11.604808987577
1	895	1169.028059498443	5.992666306011
1	903	1177.814831788447	3.261466879198
1	908	1182.493781345757	5.841651975763
1	910	1188.199600029879	8.29273292076
1	924	1217.048553782711	12.541494482738
1	932	1223.983886315736	18.274985590737
1	937	1230.697216804166	14.264595011968
1	948	1237.994823949633	21.248558732461
1	953	1239.188426488631	20.198106283507
1	964	1253.710796018385	30.968489615512
1	975	1266.141500780251	36.076799983308
1	983	1272.505633898614	40.508541714617
1	997	1293.231344572436	58.793740561401
1	1005	1306.147170711743	71.482876193778
1	1010	1314.834283508705	76.447219651912
1	1012	1329.057325833525	87.632839323713
1	1020	1335.394640386172	89.114449178651
1	1025	1340.32390351986	89.879718176581
1	1030	1342.045900933314	87.811370202031
1	1032	1342.71273779567	87.804263399412
1	1037	1345.298958954058	81.590132148858
1	1039	1350.518678679417	80.753496933518
1	1044	1360.166529685549	87.747786753719
1	1049	1364.387270170023	80.388645383981
1	1054	1367.155962099364	81.852460778174
1	1059	1369.431573630525	82.070097745356
1	1061	1372.317829511329	81.788461800695
1	1063	1372.506851490469	76.809217841693
1	1068	1381.764682781566	79.824323546942
1	1073	1382.495199028287	75.961732926182
1	1084	1389.250374691677	59.809515334482
1	1095	1393.868261347565	62.594194533475
1	1097	1396.766738727356	57.448974331277
1	1099	1397.870581384437	55.95438828867
1	1101	1398.13076827549	52.975035596789
1	1112	1413.206248608542	58.033220444023
1	1123	1429.648285722396	67.661315018942
1	1128	1439.404392202801	74.160900580664
1	1130	1447.875364066873	80.363126698245
1	1135	1448.006148180798	72.684743285174
1	1140	1451.798314022587	69.699675566806
1	1142	1458.318405080142	74.667925788787
1	1144	1468.54899137364	83.789860043701
1	1146	1480.221413010381	93.432186302917
1	1151	1481.881361359314	90.365062696706
1	1159	1498.888353609066	106.26425263641
1	1170	1510.199445484542	117.24799792914
1	1172	1511.200972741792	112.73184158013
1	1177	1518.927277117642	119.34054545217
1	1179	1520.100781751166	110.04767908233
1	1184	1527.198862858009	106.02102639948
1	1186	1528.165825129934	105.25186400786
1	1188	1528.970470957686	105.28717974427
1	1190	1529.047441913464	89.676348282482
1	1192	1529.135947092348	81.214537487866
1	1200	1542.418869411712	93.639033992864
1	1205	1546.316951191347	65.849068551391
1	1210	1547.345626180389	65.00381477669
1	1212	1547.47150446496	52.775319931202
1	1214	1554.805939259533	47.838728394151
1	1216	1563.400266354717	55.623134860188
1	1221	1567.013575745443	58.050877758232
1	1223	1567.774476300103	50.689474282848
1	1231	1568.890572251727	47.066548210067
1	1242	1582.531158228781	50.578557643875
1	1250	1590.671409103022	53.537227145383
1	1252	1592.315960178587	48.93044922347
1	1254	1592.864167848283	45.927052185498
1	1256	1592.98195516741	26.727999642167
1	1261	1599.178807050797	31.072285130225
1	1269	1601.953962739014	33.320921819633
1	1274	1606.261590517314	33.205329898882
1	1276	1606.467670365556	32.884062345645
1	1278	1613.406622884716	39.503352793904
1	1280	1614.299140532529	31.348762799392
1	1282	1614.927956527319	25.288205141571
1	1284	1615.452553071839	20.80865847445
1	1289	1623.807602327638	24.400000727916
1	1291	1633.510216031716	32.620169407323
1	1293	1640.47237760645	34.808517390992
1	1301	1646.275296018661	25.848871760846
1	1303	1647.2614105072	6.249707835979
1	1305	1648.552680175285	5.773161537084
1	1310	1652.160377361966	0.0355216012
1	1321	1663.762773154932	7.652111064988
1	1323	1664.695618943069	8.129089940843
1	1325	1667.607225828645	4.889206210483
1	1339	1692.30951487826	18.257327882099
1	1347	1700.8119397899	19.362280721031
1	1349	1704.836546230083	16.775070270385
1	1357	1717.924780827224	26.902406652066
1	1359	1718.074120232793	25.136298059388
1	1361	1718.445478361639	20.004197177649
1	1363	1718.564755737693	12.387885748433
1	1371	1722.759701743698	5.862908340876
1	1373	1726.899839164737	7.89719257794
1	1381	1734.428400438474	14.896543683878
1	1389	1739.816436636846	11.217058452059
1	1391	1744.608336799066	15.55898132055
1	1396	1746.510172601576	8.280771255688
1	1398	1748.245845824953	8.502378894404
1	1400	1755.791079426297	10.413809658593
1	1405	1768.871537873867	0.623661019417
1	1410	1770.901889754819	1.736453748267
1	1415	1782.279068914281	0.897292483076
1	1426	1794.251479048012	2.435322927175
1	1431	1800.45075781704	7.973483636321
1	1433	1800.590651323582	7.73537286924
1	1438	1801.734748199121	1.59593491172
1	1440	1801.889526239981	0.916850508206
1	1445	1803.52934631654	0.729733750421
1	1450	1808.472335796244	0.394159766692
1	1461	1859.694722313948	12.018360897564
1	1472	1878.033274582652	29.559477835903
1	1474	1878.651961933011	22.168637585781
1	1476	1882.755926008345	22.131393633
1	1478	1883.456180325491	13.272336850638
1	1480	1884.140799338322	12.780180808836
1	1485	1886.830547187274	2.132572081214
1	1496	1902.074359518929	7.029519087608
1	1498	1906.450437825771	7.673242040781
1	1503	1919.220266291301	20.221105586081
1	1505	1919.559480337154	7.423789088305
1	1513	1927.453632451849	3.916433685737
1	1518	1933.491108138274	9.872793321352
1	1529	1942.690645608828	12.594707475625
1	1543	1960.631921045626	24.405513758538
1	1548	1965.496023126881	26.925226255016
1	1550	1966.7609845792	25.813046602687
1	1552	1971.058626586008	27.413914380609
1	1554	1971.961386380015	27.488030942453
1	1562	1973.774907514603	25.1552826333
1	1564	1974.076249716967	17.568782513253
1	1566	1976.479914033078	11.988740698734
1	1571	1978.803546254164	6.512645521101
1	1573	1978.804298985615	6.059949048867
1	1575	1979.826479518589	2.316262496379
1	1580	1980.589374609851	0.311240049846
1	1585	1985.938313402771	2.786073693553
1	1596	1997.184824536113	10.783012526347
1	1601	1997.628942731126	6.447861457561
1	1603	1998.759415269752	2.699075576242
1	1611	2002.113413503664	4.719291894559
1	1613	2002.387956819128	2.62816541158
1	1618	2005.408515319742	4.699709460134
1	1629	2019.471397913389	15.103251642569
1	1631	2028.48523857844	19.635033302315
1	1642	2032.361921490914	17.406984042558
1	1644	2049.124836392499	30.419990573605
1	1646	2051.550965784136	22.563539111665
1	1648	2053.080643855492	23.020485888508
1	1650	2058.13599739923	26.14252246268
1	1655	2074.044442817994	3.057462134256
1	1660	2081.322670101497	1.208035910448
1	1668	2088.008950229844	4.866840332138
1	1670	2089.508424903676	5.33336251844
1	1675	2092.988886843346	0.147743831859
1	1680	2105.63462195016	5.470316003916
1	1688	2113.103141375823	5.281535091089
1	1690	2113.595530555239	4.700193057168
1	1698	2114.452867557423	0.659514739115
1	1715	2133.745885258329	19.475514183831
1	1717	2136.60190816515	16.819393058983
1	1719	2137.71143474216	13.774088475903
1	1730	2155.396446492506	28.320361393797
1	1732	2156.424055128867	26.174333287025
1	1740	2168.814415446098	37.957680779605
1	1745	2186.407880940328	47.660818420193
1	1747	2186.940738943297	40.498575092322
1	1749	2188.009641561136	36.405061088207
1	1751	2188.80806507569	22.112074102254
1	1753	2189.713317449208	22.894441226804
1	1758	2194.404795822646	23.102232057893
1	1760	2195.448642224309	1.705301856165
1	1765	2196.675956862852	0.438533963946
1	1782	2213.11345811409	9.700963886939
1	1799	2231.572243978771	27.876064699637
1	1804	2233.13537166567	26.22893588393
1	1812	2244.587395203614	36.191428571606
1	1817	2249.144983747433	40.02425088174
1	1825	2255.941048563256	34.864537525361
1	1836	2272.309914389853	49.979190458346
1	1841	2281.149856273319	56.886641099722
1	1843	2285.996746004758	60.705631685568
1	1848	2290.417275525552	62.655754191409
1	1850	2298.56234470462	65.834635995461
1	1855	2298.815728154531	59.568341921735
1	1857	2302.809179501394	61.316299749329
1	1859	2306.050868517942	61.197973437676
1	1861	2306.74567166542	53.701238747983
1	1863	2308.368125524339	52.658477040504
1	1865	2315.381435861603	53.192717765036
1	1868	2319.817524619649	54.309962435185
1	1870	2322.249174627998	50.835408704084
1	1872	2333.891710251971	56.099985797894
1	1874	2336.386569755057	48.618141131851
1	1876	2349.945796948996	51.349945811962
