version 2
run Testbench_2-92-20170508-12:31:19-124748
attr configname Testbench_2
attr datetime 20170508-12:31:19
attr experiment Testbench_2
attr inifile omnetpp.ini
attr iterationvars ""
attr iterationvars2 $repetition=92
attr measurement ""
attr network Toll_road
attr processid 124748
attr repetition 92
attr replication #92
attr resultdir results
attr runnumber 92
attr seedset 92
param **.numBooths 3
param **.queue[*].serviceTime exponential(5.11s)
param **.source.interArrivalTime exponential(5.854s)
param **.source.numJobs 1000

vector 2  Toll_road.queue[2]  jobsProcessed:vector  ETV
attr interpolationmode  none
attr source  queueingTime
attr title  "jobs processed, vector"
vector 3  Toll_road.sink  lifeTime:vector  ETV
attr interpolationmode  none
attr title  "lifetime of arrived jobs, vector"
attr unit  s
vector 0  Toll_road.queue[0]  jobsProcessed:vector  ETV
attr interpolationmode  none
attr source  queueingTime
attr title  "jobs processed, vector"
vector 1  Toll_road.queue[1]  jobsProcessed:vector  ETV
attr interpolationmode  none
attr source  queueingTime
attr title  "jobs processed, vector"
0	8	27.07000440475	0
0	23	53.621485941886	0
0	48	80.783923130404	0
0	53	85.534977857734	0
0	63	99.449724790523	0
0	70	109.88045600796	1.474505842687
0	87	139.648949078214	0
0	92	140.828316906271	0
0	104	149.8649728404	0
0	137	176.192267102983	0
0	144	178.024111822857	1.42625837428
0	157	181.594232668213	0
0	171	194.223629128943	0
0	191	210.482594848871	0
0	224	246.64065288331	0
0	231	249.026819185829	1.676109523263
0	236	253.400301333678	4.833915002155
0	242	258.439153630283	0
0	259	285.644633194859	0
0	268	291.528240944357	0
0	281	316.528529460376	0
0	351	402.722007712566	0
0	368	425.348874100957	0
0	380	432.740900377112	7.312833372048
0	385	435.483567473959	4.228023108237
0	392	459.053881125257	25.156971491613
0	407	465.923117803851	6.278279332052
0	418	474.623088095627	6.539895626409
0	420	474.877083848262	5.431498225015
0	422	476.710830243946	4.804357335648
0	443	507.532256393381	0
0	468	539.270896138513	0
0	496	584.699904874613	0
0	534	616.632732501879	0
0	544	625.212653539959	0
0	549	627.906918760905	0
0	569	650.527638545642	0
0	583	662.905198703716	9.456681074149
0	592	670.044053479296	1.346107238115
0	609	678.855310252646	0
0	642	720.379205298453	0
0	646	722.689330842671	1.686311249071
0	678	774.207453068135	0
0	683	775.665425529044	0
0	687	778.970375921178	3.204785875128
0	721	820.689580041081	0
0	726	823.380256822239	0
0	737	844.080951051194	10.6553221309
0	743	881.716633365663	0
0	748	887.924205096396	0
0	761	902.483512479369	0
0	778	920.564577530181	0
0	783	928.204481870613	0
0	787	935.298806332517	1.059853060262
0	803	948.182453339423	0
0	817	953.702812457747	0
0	823	963.183346928292	8.90520451965
0	849	978.486914774413	0
0	854	980.047409139814	0
0	866	994.824783383095	0
0	918	1055.263190479893	0
0	929	1060.853079327586	0
0	959	1086.12819922978	0
0	974	1096.483667631086	0
0	984	1107.096794266411	0
0	1019	1168.404540864517	0
0	1036	1175.573171241431	0
0	1046	1182.016482620921	0
0	1083	1235.069558186226	0
0	1099	1248.373816380055	0
0	1108	1268.891565955392	0
0	1112	1272.305702087955	1.633049937753
0	1131	1307.595865360251	0
0	1151	1330.47413843082	0
0	1166	1344.35990365096	13.104196612505
0	1170	1345.698746459122	3.564099016978
0	1181	1354.298352272483	0
0	1185	1355.305883689504	0.318588687598
0	1192	1357.923977039645	2.479855751715
0	1197	1367.609193965726	6.834343159238
0	1214	1388.8460829277	0
0	1238	1427.692881897352	0
0	1243	1432.04409487946	0
0	1248	1437.551507620304	0
0	1266	1446.66971369236	3.287853164053
0	1268	1449.079828249268	5.068623433876
0	1278	1461.350291407061	0
0	1291	1470.243970900914	0
0	1329	1516.029242099989	0
0	1348	1538.30834590545	0
0	1352	1541.615763760284	2.70353040214
0	1369	1548.010443895362	0
0	1383	1561.676152641933	6.335430163236
0	1390	1566.710573435301	1.126442895175
0	1413	1600.878635650212	0
0	1426	1620.888519609039	0
0	1447	1626.151029672167	0
0	1473	1643.882301954802	8.597876897909
0	1479	1648.320523874659	0
0	1486	1650.687776449267	0
0	1493	1669.856517243158	0
0	1518	1737.735941393491	0
0	1523	1762.919862342765	0
0	1543	1769.094139623073	6.07038994561
0	1548	1773.614884059145	3.354747307048
0	1556	1786.420189456647	2.167050021772
0	1579	1801.519508771622	11.908391543208
0	1586	1806.533996005347	15.746816540715
0	1588	1807.640863478369	11.039409055739
0	1605	1814.323445244494	15.074098385433
0	1607	1817.402370293738	12.409490558278
0	1613	1820.14778161292	0
0	1618	1827.469457773311	0
0	1633	1836.973748906519	0
0	1651	1864.035262391734	0
0	1678	1912.82052200546	0
0	1694	1924.397879785254	0
0	1728	1956.039062198057	0
0	1735	1957.47474686446	0.913968135928
0	1742	1965.366190341461	4.787476476278
0	1755	1972.508627096717	4.423374529693
0	1757	1975.878892577284	4.537938140063
0	1762	1986.070784539858	2.559795503798
0	1771	1999.613292929335	0
0	1796	2038.826949536834	0
0	1808	2059.387069590117	0
0	1818	2071.378231126785	0
0	1836	2103.9240656021	0
0	1868	2162.12317973234	0
0	1877	2176.239397826335	8.216173107231
0	1883	2197.717931682921	0
0	1931	2270.34859999798	0
0	1938	2276.299098047429	0
0	1948	2295.098137002368	0
0	1958	2308.563802346547	0
0	1981	2345.76276468378	0
0	1998	2384.080108882283	0
0	2003	2389.100816195479	0
0	2031	2423.427751402887	0
0	2051	2449.668049644448	0
0	2058	2451.387682899914	0
0	2062	2454.322183447654	2.038356545461
0	2071	2457.707955984774	0
0	2111	2526.069579381337	0
0	2163	2613.049152502598	0
0	2167	2619.403663632434	0.363375091443
0	2183	2645.046220773296	0
0	2208	2676.620355815493	0
0	2213	2685.242023872097	0
0	2238	2713.534078018393	0
0	2243	2721.722505370391	0
0	2251	2731.368636005551	0
0	2266	2743.269239321309	0
0	2270	2744.832403628742	0.090292956525
0	2291	2755.308642730185	0
0	2297	2768.613236614603	5.139463984304
0	2323	2809.05898294852	0
0	2327	2816.205083728778	5.565727186477
0	2341	2833.875872165866	0
0	2348	2846.058386195613	0
0	2355	2852.741326260146	1.658279271564
0	2362	2857.974636635755	5.926937519491
0	2378	2872.934773704165	0
0	2398	2895.679997938013	0
0	2411	2902.397478524618	0
0	2425	2911.120613813621	6.088526874976
0	2427	2915.644312916516	8.993291902523
0	2451	2934.463674041829	0
0	2463	2945.311703828639	5.881667057613
0	2476	2956.517972798476	9.530211912401
0	2482	2964.272596771665	12.663588966246
0	2488	2965.390409330446	0
0	2503	2980.005672295102	7.001156234742
0	2518	2991.893539340614	0
0	2531	3023.946117971287	0
0	2549	3033.771918473692	0
0	2566	3042.572119442095	0
0	2572	3049.159459496664	6.316580190053
0	2578	3053.674669664376	0
0	2596	3064.207568924998	0
0	2611	3076.280177909737	0
0	2641	3129.223809423163	0
0	2658	3139.777647768266	0
0	2662	3146.476581457209	1.127480734538
0	2668	3150.604515796862	0
0	2678	3171.698869515177	0
0	2682	3174.6007773863	2.88677323797
0	2693	3186.406320390117	0
0	2708	3213.99332665099	0
0	2716	3220.869725200151	0
0	2721	3225.354059434538	0
0	2745	3253.686691085223	27.497707638195
0	2756	3258.177027257481	0
0	2784	3297.110448221817	0
0	2803	3322.946945909758	0
0	2856	3392.168016193249	0
0	2863	3404.393120599319	0
0	2870	3411.303012032301	6.724430287419
0	2872	3416.430278997221	8.593667645809
0	2893	3424.979837718345	0
0	2913	3449.2274106296	0
0	2918	3455.226852185886	0
0	2931	3473.175943956583	0
0	2945	3488.880522260422	14.556124143591
0	2950	3497.7652285923	12.429374849854
0	2955	3498.728464456825	3.827691986197
0	2957	3501.356237761438	2.747038785139
0	2976	3519.879944790153	0
0	2988	3531.995760040484	0
0	2995	3538.905942535115	1.316423310026
0	2997	3542.371657607859	3.743405212209
0	3013	3564.417762898563	0
0	3025	3571.881763601641	6.85688574807
0	3038	3578.012567777931	0
0	3048	3585.585831278352	0
0	3056	3607.779850728809	0
0	3063	3623.004822181775	0
0	3074	3648.724111456799	0
0	3106	3670.286427432878	0
0	3129	3703.078445095633	0
0	3144	3719.691218406004	8.280870763707
0	3150	3722.707271853928	3.71476937565
0	3163	3750.916122267162	0
0	3171	3764.119540138408	0
0	3176	3767.469572033646	0
0	3196	3783.354192792645	0
0	3218	3831.738737335417	0
0	3233	3865.295923516297	0
0	3261	3896.230420195171	0
0	3268	3907.354904527191	0
0	3289	3933.176683748727	0
0	3298	3941.312574656198	0
0	3313	3959.065576376598	0
0	3325	3970.000848315602	3.326090371994
0	3363	4008.023569250192	0
0	3385	4033.759546886789	22.467296926579
0	3396	4039.32038678166	0
0	3403	4045.589290122553	0
0	3420	4062.670296320419	9.101943382723
0	3433	4081.230018522057	0
0	3448	4099.012269801813	0
0	3452	4100.681698266931	0.293694959495
0	3468	4132.729204139534	0
0	3479	4140.452765854199	0
0	3483	4144.813690430228	0.844333012434
0	3501	4161.629222354649	0
0	3518	4192.636524816148	0
0	3574	4245.425355535312	0
0	3579	4248.194879408801	0
0	3593	4258.500151592252	0
0	3606	4287.514350171504	0
0	3622	4312.358551288658	17.91483841887
0	3628	4326.423590909015	0
0	3657	4343.039293896403	0
0	3667	4348.037247865882	0
0	3672	4348.96349106242	0
0	3687	4374.469131397683	0
0	3738	4432.991876268998	0
0	3761	4468.325335379127	0
0	3784	4482.788319886656	3.283276788761
0	3794	4497.040533659092	14.440723294608
0	3796	4501.440561125693	18.83274445493
0	3819	4518.255619637282	0
0	3824	4518.843332353336	0
0	3856	4562.159906284269	0
0	3861	4566.019407327563	0
0	3883	4598.238179435356	0
0	3888	4613.651749141978	0
0	3896	4629.16432803835	0
0	3901	4634.556074263853	0
0	3919	4661.193497591311	0
0	3923	4662.075952164921	0.168408247069
0	3937	4669.619306088323	0
0	3958	4675.842054770871	0.977591533006
0	3983	4746.608019242619	0
0	3993	4763.755291679193	0
0	4000	4771.197527578711	2.593147815435
0	4005	4771.4245748642	0.061394027409
0	4081	4876.87171954757	0
0	4093	4896.154852247774	0
0	4103	4916.884087709471	0
0	4123	4926.276215738134	7.911246622443
0	4128	4927.195121960189	2.374379664066
0	4136	4936.780218564036	9.951783895277
0	4149	4949.254963731199	7.412981577303
0	4162	4953.367415295157	1.55763714127
0	4192	4989.437001117143	0
0	4200	4993.370021516916	0
0	4215	5000.884864631921	1.810380061106
0	4264	5042.410091749392	0
0	4278	5064.651619115568	0
0	4285	5067.439174883728	0.356519404971
0	4295	5073.000915893006	3.845700897886
0	4305	5082.129124433133	12.261083162762
0	4310	5085.880952292227	5.820078861791
0	4323	5109.343337625258	0
0	4328	5111.492133790915	0
0	4344	5127.851545877615	0
0	4358	5134.848778941174	0
0	4368	5144.210656522322	0
0	4383	5153.856182700038	0
0	4428	5214.302544114183	0
0	4436	5224.174816418486	0
0	4446	5260.73431222247	0
0	4467	5278.913693371271	0
0	4473	5280.187028957193	0.768788361587
0	4482	5281.918089920385	0
0	4500	5292.576586720948	9.976167399274
0	4525	5306.580642609679	0
0	4533	5315.268033595363	0
0	4542	5320.568603584305	0
0	4556	5336.110469477674	0
0	4582	5354.419878728146	13.482319945903
0	4593	5364.796074310986	0
0	4597	5376.479217217786	10.691209513193
0	4603	5384.970722133553	0
0	4618	5405.980633908541	0
0	4646	5430.426002070515	0
0	4658	5449.492267714289	0
0	4681	5490.971178246	0
0	4713	5532.078832412983	0
0	4723	5555.531318579505	0
0	4731	5571.868084031981	0
0	4749	5588.807154266236	0
0	4772	5601.481309787185	0
0	4778	5611.01768669787	9.509261767933
0	4808	5655.455310016532	0
0	4812	5660.637970145088	0.044732046975
0	4826	5670.541668759684	0
0	4839	5678.491357042984	0
0	4858	5697.897857645729	0
0	4863	5709.77847510717	0
0	4873	5718.952312829948	0
0	4896	5750.383295137132	0
0	4900	5751.454649120502	0.199483449883
0	4913	5770.658464545691	0
0	4918	5772.546921688656	0
0	4923	5789.696569467356	0
0	4938	5815.653256122732	0
0	4947	5828.50261503735	7.648426431809
0	4952	5842.912937707732	0.756234325665
0	4983	5887.825458865355	0
0	5003	5899.202356778152	0
0	5008	5905.22058930173	0
0	5012	5908.568269502816	1.500395211645
0	5023	5914.360024742599	0
0	5038	5934.625233035477	0
0	5042	5939.234265123819	3.686701377148
0	5050	5942.656734491239	1.256966735743
0	5081	5981.625905019807	0
0	5093	6015.063033607336	0
0	5138	6076.99848471865	0
0	5159	6121.512100260607	0
0	5164	6126.515114279151	0
0	5191	6168.210979213381	0
0	5208	6178.116318830132	0
0	5219	6183.333344846352	0
0	5235	6193.277645317267	3.227876253851
0	5248	6203.336824265406	0
0	5270	6217.681128168748	1.929900168373
0	5278	6218.252526368571	0.168974052921
0	5292	6241.312349037927	0
0	5331	6269.379850734685	0
0	5361	6313.236742522552	0
0	5386	6354.23748048989	0
0	5401	6364.098927933	0
0	5428	6387.138005926034	0
0	5438	6390.896899343298	3.462593232163
0	5440	6397.251926058989	7.865779847319
0	5447	6403.70251061287	5.505622577663
0	5458	6426.369846600661	0
0	5463	6432.177418854357	0
0	5471	6438.953489749685	0
0	5493	6456.63225714766	0
0	5506	6476.765099881362	0
0	5538	6508.231231824377	0
0	5548	6514.245983221146	1.277943594825
0	5552	6523.599945227008	10.172789513311
0	5568	6554.621238821678	0
0	5581	6570.108456564265	0
0	5613	6593.125901167857	0
0	5628	6610.351167579014	0
0	5633	6617.056572229272	0
0	5638	6626.702317064781	0
0	5658	6658.22390628625	0
0	5673	6679.00051206491	0
0	5678	6690.856186904838	0
0	5683	6694.076102183226	0
0	5688	6699.7442853548	0
0	5696	6704.465973797242	0
0	5708	6716.112377742068	0
0	5728	6776.893587272792	0
0	5749	6800.279146725225	0
0	5754	6802.898994751696	0
0	5786	6846.401603436646	0
0	5803	6859.297068920992	9.910505516464
0	5811	6863.757009304577	7.153212210852
0	5836	6883.954217604256	0
0	5849	6896.222042696797	0
0	5865	6914.593641191139	0
0	5869	6915.095830395133	0.473069186355
0	5876	6920.713321615682	0.613717531261
0	5896	6939.390156262302	0
0	5908	6950.026932604763	10.362140138151
0	5931	6974.589228925828	0
0	5998	7072.207247946756	0
0	6023	7099.336666528356	0
0	6058	7131.754464018518	0
0	6068	7151.111623735079	0
0	6075	7157.058446797141	4.295739006047
0	6088	7167.631423232011	0
0	6093	7176.93412433842	0
0	6113	7208.483535703861	0
0	6118	7213.973409464386	0
0	6123	7223.454096556647	0
0	6127	7228.498808451246	1.481121183392
0	6133	7231.24394256226	0
0	6164	7270.945600084702	0
0	6172	7275.23119947178	3.506716070267
0	6196	7302.256068044701	0
0	6202	7306.057769905997	0.531903127053
0	6239	7369.203936250171	0
0	6251	7378.614856196083	0
0	6266	7391.849749813821	0
0	6291	7411.40032914173	0
0	6298	7424.767760864984	0
0	6303	7433.271035278407	0
0	6318	7470.68213437813	0
0	6327	7476.431027674385	3.68577763101
0	6333	7491.181743717833	0
0	6343	7498.711008318958	4.819077228566
0	6349	7504.627045701701	0
0	6383	7541.409239250181	0
0	6388	7546.014520545931	0
0	6413	7589.471225361817	0
0	6421	7596.020482066149	0
0	6428	7606.528659494247	2.246916355405
0	6444	7614.891561637226	0
0	6456	7631.752809196399	0
0	6468	7653.596481333011	0
0	6487	7670.452088027691	6.605321690056
0	6501	7679.732887760942	0
0	6513	7717.380530490117	0
0	6528	7743.874138131803	0
0	6551	7769.474036716537	0
0	6560	7776.164327931598	0.992162714499
0	6573	7792.015837480383	0
0	6577	7797.621763486347	2.103139473393
0	6583	7806.034126898884	0
0	6596	7813.804377655491	4.542881825527
0	6617	7843.215465385817	0
0	6624	7846.64862064034	0
0	6634	7855.705686772654	8.699434801359
0	6664	7881.406451444505	0
0	6673	7890.44195533825	5.664383268108
0	6689	7914.812793831018	0
0	6696	7940.061175472361	0
0	6719	7967.38906204388	0
0	6743	8007.935447550778	0
0	6748	8025.083627952311	0
0	6752	8033.240734332405	5.854396649935
0	6762	8042.975397575671	3.209003966081
0	6793	8074.867105592083	0
0	6811	8086.12993368759	0
0	6821	8102.350881581622	0
0	6832	8112.151588131172	7.860951404381
0	6854	8131.413078809787	0
0	6876	8170.682574361126	0
0	6896	8194.701102516262	0
0	6903	8201.979273850037	0
0	6936	8240.520555880517	0
0	6945	8243.666124610336	1.65957966593
0	6958	8251.941671448352	5.241275489326
0	6966	8256.106888516342	7.574142530104
0	6985	8265.91027685299	0
0	7016	8293.347497888847	0
0	7041	8313.250444952972	0
0	7068	8361.569745135321	0
0	7084	8374.561739889785	0
0	7106	8388.561910358262	0
0	7113	8391.50171524228	0
0	7128	8397.206612717136	0
0	7146	8410.808577932784	0
0	7153	8413.963853833935	0
0	7178	8445.138406817985	0
0	7191	8459.940691642373	0
0	7204	8470.655658479779	0
0	7243	8515.805924225422	0
0	7251	8520.839968428197	0
0	7255	8527.972094014797	1.632249005368
0	7298	8554.421224189255	0
0	7312	8563.540564799691	2.518645157422
0	7327	8575.543457004947	0
0	7337	8579.042294363493	0
0	7348	8588.769513283251	0
0	7421	8677.632020558865	0
0	7428	8678.948705025941	0
0	7435	8689.984642085973	9.644657151301
0	7437	8694.163159821923	10.386363357975
0	7443	8695.855335637993	0
0	7448	8699.254807822967	0
0	7466	8710.267195088241	0
0	7483	8728.489124870011	0
0	7487	8731.746710408273	2.553990293758
0	7506	8746.669307049789	0
0	7512	8753.630848181221	5.318700314398
0	7526	8765.215543112559	0
0	7536	8771.818002321274	4.144261980938
0	7551	8790.755432269776	0
0	7573	8823.183525155193	0
0	7587	8841.036395646594	0
0	7591	8846.944095362279	2.57201642692
0	7628	8871.728757777429	23.456215419515
0	7639	8874.650016479437	24.837551732539
0	7652	8890.027903244433	0
0	7661	8902.314197823925	0
0	7671	8904.789424300432	0
0	7734	8973.239485664489	0
0	7739	8973.506706294083	0
0	7756	8986.054743872344	0
0	7762	8989.271407531286	0.777816545233
0	7768	9000.578936145645	0
0	7788	9032.477223036662	0
0	7808	9047.87026885778	0
0	7813	9054.748530759995	0
0	7824	9069.222075762132	0
0	7842	9091.441189323837	0
0	7873	9108.436867811854	0
0	7883	9124.703073915354	0
0	7888	9135.551672938453	0
0	7895	9137.642646795148	1.041059399919
0	7923	9179.146566474132	0
0	7931	9182.642541816609	0
0	7936	9195.420145067714	0
0	7958	9227.206580971303	0
0	7968	9246.481035813025	0
0	7984	9277.848641767144	0
0	8006	9295.917243975808	0
0	8046	9354.024507020375	0
0	8055	9362.669138699847	6.164127782496
0	8061	9364.390337833789	0
0	8065	9364.96079248307	0.279112545193
0	8079	9380.205720135811	0
0	8088	9386.304691816269	3.595802314723
0	8092	9399.111798662326	14.115188745053
0	8103	9421.003642568762	0
0	8111	9436.02562711004	0
0	8158	9477.175168965424	0
0	8183	9514.015059507191	0
0	8188	9525.411011187852	0
0	8203	9558.860591465134	0
0	8216	9569.198939922871	0
0	8236	9590.918406468565	0
0	8271	9651.184244357474	0
0	8284	9679.548782372643	0
0	8300	9687.881556937407	0
0	8320	9696.569950332335	0
0	8348	9736.927850608241	0
0	8353	9746.365806200135	0
0	8363	9759.099394533236	0
0	8372	9764.270135286259	4.38761724824
0	8395	9782.961053631074	0
0	8400	9789.220673694836	0
0	8407	9796.442976316553	5.881783192596
0	8414	9798.868246744506	1.696780743611
0	8453	9871.688466471043	0
0	8458	9876.16780036121	0
0	8482	9909.746050821231	0
0	8489	9911.967224669852	0
0	8511	9936.244517625993	0
0	8521	9942.772807950544	0
0	8532	9954.114302633433	6.538326388188
0	8544	9958.6451901413	0
0	8564	9989.454313499711	0
0	8608	10081.023498480782	0
0	8623	10100.191999572886	0
0	8627	10102.145159023605	0.786525434965
0	8638	10108.529652216433	0
0	8647	10112.905230469644	2.971300879431
0	8663	10146.189527982712	0
0	8701	10204.767416160592	0
0	8713	10211.670901404959	0
0	8718	10216.127241282627	0
0	8741	10255.839286050429	0
0	8752	10262.67399756868	0
0	8761	10270.142665627734	0
0	8770	10279.136414848099	5.405811928925
0	8779	10297.951158402916	0
0	8789	10300.100677852821	1.293048862042
0	8823	10355.066716692797	0
0	8838	10374.47261123219	0
0	8884	10411.901323226768	0
0	8921	10456.70452025401	0
0	8957	10475.075335643389	9.558622161541
0	8966	10489.31649367382	0
0	9011	10550.0934403133	0
0	9031	10574.047849225149	0
0	9037	10575.388911482388	1.084058882136
0	9048	10582.434053030898	0
0	9111	10655.976489526211	0
0	9136	10693.927501835779	0
0	9140	10702.388636190836	2.785200242507
0	9153	10710.289150076234	0
0	9161	10719.229740662635	0
0	9168	10736.92862363343	0
0	9178	10744.174449807299	0
0	9193	10770.811313681168	0
0	9213	10810.322224733044	0
0	9243	10860.407300021842	0
0	9250	10867.844363364582	3.041578694168
0	9271	10879.07284673258	0
0	9283	10896.965835600738	0
0	9303	10913.480330237629	0
0	9311	10914.404101390562	0
0	9339	10948.874539969419	0
0	9346	10954.191254066165	0
0	9368	10971.947452039399	0
0	9403	11015.49499605743	0
0	9408	11056.209495299248	0
0	9453	11101.819865640354	0
0	9471	11117.390510941511	0
0	9502	11142.444349662893	0
0	9508	11147.046599259401	2.085249908513
0	9521	11156.206613346504	0
0	9528	11159.19526474353	0
0	9533	11179.134822463216	0
0	9543	11194.470198647983	0
0	9578	11225.465651905181	0
0	9586	11254.818181918384	0
0	9597	11261.394568786663	4.235927422793
0	9618	11297.085433579896	0
0	9623	11311.35368159654	0
0	9663	11379.068084933149	0
0	9668	11391.936524988541	0
0	9679	11407.124216310529	0
0	9703	11446.123526401286	0
0	9721	11470.512918154855	0
0	9742	11494.270603864745	0
0	9768	11512.094045140465	0
0	9788	11536.720623920072	0
0	9793	11559.054695753715	0
0	9813	11591.09008289964	0
0	9823	11604.19675122807	0
0	9854	11626.947694835064	21.137282890587
0	9859	11629.67816184394	8.795944697239
0	9865	11646.531812898693	25.185738376056
0	9870	11651.766047317339	30.406719558521
0	9872	11653.833363105562	2.824971822657
0	9878	11657.966158069429	0
0	9896	11689.716574710599	0
0	9904	11696.249609805208	0
0	9936	11715.453102324177	18.004168682222
0	9938	11715.570893870492	14.226499149163
0	9943	11718.425692196432	6.70556631285
0	9947	11720.035541933147	7.727308637934
0	9958	11736.674120840449	0
0	9963	11753.399646542388	0
0	9983	11774.665585789903	0
0	9988	11781.620431914009	0
0	9998	11787.545611155693	0
0	10003	11792.444696670855	0
0	10025	11808.53046022339	13.823904238491
0	10027	11812.414729156333	13.558329546644
0	10038	11818.118735353758	0
0	10048	11830.265102332982	0
0	10062	11845.09160140773	0
0	10070	11853.022720117933	4.010006184786
0	10091	11867.832530116203	0
0	10103	11882.556056072526	0
0	10107	11887.857907998564	2.587427599447
0	10113	11892.547531152207	0
0	10131	11905.252369466155	0
0	10152	11924.574852796546	0
0	10161	11931.417775104728	0
0	10170	11939.92032680707	4.315652174323
0	10197	11970.463630949216	0
0	10223	12007.890860463433	0
0	10231	12019.365189221561	0
0	10236	12020.840241740804	0
0	10251	12036.692489435975	0
0	10273	12061.725407351991	0
0	10291	12071.976421283347	0
0	10298	12079.393564148229	0
0	10303	12086.544486864111	0
0	10331	12118.663500101069	0
0	10341	12128.195839733139	0
0	10348	12134.326379540454	0
0	10383	12172.718714804506	0
0	10392	12182.554096702086	3.780312488608
0	10403	12191.357239841133	6.46979613841
0	10413	12203.974682186685	0
0	10448	12256.228095618679	0
0	10468	12278.588119322341	0
0	10486	12297.439517614485	0
0	10493	12301.328119308961	0
0	10513	12317.515306250346	15.806750380971
0	10530	12328.527917920707	13.538875979734
0	10535	12329.531616257589	3.438621623607
0	10558	12358.487283412479	0
0	10579	12391.330970937864	0
0	10586	12398.979579796001	0
0	10596	12401.97090458913	2.152724870692
0	10633	12444.243641415316	0
0	10643	12449.471579722167	0
0	10648	12462.905006193111	0
0	10698	12524.70367101993	0
0	10703	12526.551923015918	0
0	10716	12548.165603565785	0
0	10726	12562.18361380785	0
0	10748	12610.084119274213	0
0	10753	12620.632296843418	0
0	10768	12636.915470473061	0
0	10778	12673.190135982616	0
0	10797	12681.569624473799	1.401733759637
0	10823	12693.255739246575	0
0	10831	12732.671858822341	0
0	10844	12739.035092691516	3.40361102246
0	10848	12742.049070052332	5.351848743467
0	10864	12759.135538908577	0
0	10901	12787.313528142225	15.437347202152
0	10913	12825.705390666705	0
0	10918	12833.432686175266	0
0	10923	12842.419004190353	0
0	10948	12859.58148120146	0
0	10966	12877.902642812373	0
0	10978	12882.596967571045	0
0	10993	12899.718632072571	2.899449349015
0	11008	12907.588411411976	0
0	11038	12932.733673422408	13.148824264158
0	11043	12948.725283675181	26.770309438598
0	11053	12955.942768409664	26.852547634342
0	11055	12956.955330671117	22.006352458147
0	11063	12988.957537349735	0
0	11087	13006.445969399696	0
0	11096	13011.467657784342	0
0	11108	13023.904111085782	0
0	11138	13051.339268851529	0
0	11148	13069.993025409903	0
0	11158	13097.446642313722	0
0	11168	13115.655313475359	0
0	11193	13151.368230009632	0
0	11238	13186.636237440055	0
0	11246	13198.774246755319	0
0	11251	13202.474082157928	0
0	11306	13248.229829132663	0
0	11310	13250.711651958447	1.005073029214
0	11317	13254.072559470256	0.876571766095
0	11323	13259.69520954573	0
0	11354	13289.805979032531	0
0	11359	13294.086125011673	0
0	11364	13294.972478008883	0
0	11371	13303.442166687522	0
0	11378	13317.09113422095	0
0	11396	13356.611178286681	0
0	11461	13427.361135989372	0
0	11471	13438.994599522825	0
0	11488	13458.136962395957	0
0	11493	13463.717638398456	0
0	11503	13479.345246406108	0
0	11531	13504.083127579777	0
0	11552	13514.248700333826	5.561610475383
0	11556	13515.614970515001	5.628681348585
0	11568	13529.456543829414	0
0	11593	13575.311949275055	0
0	11598	13581.285813085314	0
0	11623	13601.412868174358	0
0	11683	13697.00134978702	0
0	11698	13719.936130583134	0
0	11710	13727.305131546122	6.711894217002
0	11715	13730.878960998184	3.34339335921
0	11721	13732.111068725409	0
0	11728	13748.767210161088	0
0	11732	13755.181100719255	5.899875225039
0	11737	13755.597329014875	0.255091219514
0	11748	13758.817825591442	0
0	11761	13786.370908122097	0
0	11767	13796.793906100018	2.507095701901
0	11781	13808.314417922225	0
0	11793	13828.265255624345	0
0	11806	13861.682401011977	0
0	11830	13881.003318190225	17.112879374214
0	11832	13881.745083895949	11.827153938103
0	11852	13910.056541097295	0
0	11873	13930.865656011397	0
0	11888	13950.761934931152	0
0	11921	13994.866109529744	0
0	11953	14046.595741039917	0
0	11957	14050.871748092156	0.461968762864
0	11971	14063.708899871327	0
0	11986	14079.57115607872	0
0	11991	14080.763427422831	0
0	12007	14089.364730897593	0
0	12018	14097.072227251269	0
0	12031	14111.105026032656	0
0	12053	14128.126214747058	8.689383249448
0	12071	14142.022043794464	15.47465977972
0	12075	14143.055717569206	8.252447630683
0	12077	14144.576808893673	3.405458787582
0	12093	14164.379398385765	0
0	12116	14206.221372836437	0
0	12168	14275.130348540717	0
0	12173	14275.563832712747	0
0	12194	14290.176863033986	0
0	12203	14305.729674723155	0
0	12217	14312.863182378942	3.327234184661
0	12222	14314.44242204382	1.352423587313
0	12233	14326.012912308217	3.736888132029
0	12249	14336.280903276465	0
0	12271	14363.006274331067	0
0	12289	14383.830090143172	0
0	12298	14399.441799605713	0
0	12316	14433.208446469761	0
0	12335	14441.874015541472	0
0	12345	14449.990488004336	0
0	12366	14457.011379818945	0
0	12373	14474.40651782393	0
0	12391	14489.735610495396	0
0	12398	14499.545745767355	0
0	12409	14504.275442267674	0
0	12425	14509.156558965455	2.121711216607
0	12443	14522.352514684204	9.461156884696
0	12452	14527.75147871652	11.113876055988
0	12462	14533.819545276441	5.070422224268
0	12476	14556.879653623258	0
0	12490	14563.748235585433	0.500001465909
0	12503	14581.241596562588	0
0	12519	14583.544996803241	0
0	12566	14683.691130738225	0
0	12605	14735.529916663281	0
0	12611	14737.768773717862	0.765483483261
0	12626	14751.785338502742	0
0	12638	14767.46269937596	15.026735060994
0	12640	14772.199668659584	17.330236837343
0	12648	14777.531789995859	10.196624151457
0	12650	14780.422586425845	6.893826360936
0	12658	14787.715687920528	0
0	12667	14804.661211435286	0.727415424166
0	12673	14819.773832093498	0
0	12683	14840.534659103035	0
0	12698	14881.883613660075	0
0	12756	14904.34153614151	0
0	12787	14955.500148941724	0
0	12801	14970.45182978575	0
0	12808	14983.361729246304	0
0	12826	15039.216368452732	0
0	12843	15068.969050328772	0
0	12857	15075.107580993528	1.246009795732
0	12888	15132.891461709514	0
0	12901	15147.344525507134	0
0	12928	15193.677707945424	0
0	12956	15214.064143452925	0
0	12982	15226.812610568738	7.72116230914
0	12994	15230.872881467174	11.472499855762
0	12996	15232.531251667361	8.955923960068
0	13010	15243.275085983781	18.252065673296
0	13018	15245.858774946774	18.804025661782
0	13020	15246.656223751435	1.192847073537
0	13045	15271.690237505127	0
0	13056	15276.425910345517	0
0	13062	15277.626703773984	0.753506570068
0	13070	15285.291177472544	1.999419871104
0	13082	15291.214541440719	3.296782645325
0	13102	15310.234564506317	0
0	13113	15341.971353308234	0
0	13123	15359.301001482282	0
0	13149	15386.026536088395	0
0	13164	15396.8430770412	0
0	13173	15407.601495503031	0
0	13181	15415.808775656754	0
0	13196	15435.060457339321	0
0	13206	15441.996767149145	0
0	13211	15446.885230101215	0
0	13224	15457.897807430963	8.965960545924
0	13228	15460.298561950656	11.185614154728
0	13233	15462.377711752278	10.164341517714
0	13235	15462.477849739173	4.591899594544
0	13246	15472.759428886343	0
0	13291	15528.157702890745	0
0	13306	15556.673549886158	0
0	13313	15571.843050897191	0
0	13321	15576.464095857557	0
0	13327	15588.028446136306	2.139310510023
0	13332	15601.867398313847	6.333026471666
0	13348	15610.418667120046	3.658200988141
0	13350	15610.754918393143	3.775763630301
0	13362	15618.984186818267	0
0	13375	15632.703353893572	0
0	13382	15638.197429783851	0
0	13387	15641.820421704454	0
0	13408	15665.693592362887	0
0	13428	15691.2972098613	0
0	13432	15696.824105387309	1.613636213114
0	13446	15709.791236664791	0
0	13461	15719.952087911343	0
0	13475	15728.846716610521	7.581804127537
0	13481	15733.573246667504	0
0	13511	15785.856278663123	0
0	13520	15807.887214749903	7.582259158468
0	13527	15815.243788080559	8.436933676737
0	13553	15840.675220306639	0
0	13589	15874.133283262586	0
0	13603	15890.349494825665	13.100729257883
0	13618	15909.566186905412	0
0	13642	15922.396030307364	12.05732197277
0	13666	15946.905843551032	0
0	13673	15956.851742657838	0
0	13683	15987.46435227059	0
0	13693	15994.53935868858	6.615528137347
0	13701	16001.818493687089	0
0	13726	16046.337046433256	0
0	13747	16054.787784318365	6.912082227807
0	13790	16084.379593779128	22.106398076775
0	13792	16087.990622537811	17.475559380335
0	13804	16094.804338837285	0
0	13809	16102.474875853633	0
0	13814	16103.840436077135	0
0	13818	16109.365625530788	2.821565750186
0	13831	16133.498229424031	0
0	13858	16148.128606266615	0
0	13901	16198.936886745363	0
0	13908	16199.943573534214	0.497706406852
0	13918	16208.729140943313	0
0	13936	16229.012805012388	0
0	13953	16245.468430896809	0
0	13957	16255.085884887489	0.41338199958
0	13962	16257.554670856267	2.363787175954
0	13978	16268.358474355674	0
0	13991	16275.938206729323	1.792417282383
0	14007	16281.28197388138	2.58405781919
0	14048	16330.330602765583	0
0	14067	16357.146347907049	24.210779863604
0	14078	16374.537214408298	0
0	14082	16379.61829220025	4.866936626257
0	14088	16405.708826248398	0
0	14093	16413.051879916295	0
0	14113	16437.794462226335	0
0	14123	16459.295286217786	0
0	14138	16490.286278127592	0
0	14148	16515.242078133484	0
0	14193	16561.367054519684	0
0	14202	16565.510049917246	0.680806735289
0	14232	16608.811972112443	0
0	14237	16612.167583761537	0
0	14242	16614.941915094938	0
0	14246	16619.108685248098	2.327968380861
0	14254	16622.723665881375	1.04684469895
0	14278	16637.909601981236	4.112771159435
0	14296	16651.609746823346	0
0	14334	16691.009391793545	0
0	14348	16711.284331324625	0
0	14363	16726.374569844891	0
0	14378	16749.174589855563	0
0	14383	16761.878485998473	0
0	14393	16782.149713106639	0
0	14398	16818.977522943004	0
0	14423	16834.477027390185	0
0	14433	16843.913945802364	0
0	14442	16857.631082023687	0
0	14453	16861.764014173502	0
0	14458	16863.965174523047	0
0	14470	16875.598176368984	6.36093259261
0	14493	16888.812684488428	3.842608608486
0	14506	16896.686258931729	0
0	14518	16911.186054175668	0
0	14534	16924.690963734554	0
0	14574	16976.103055255043	0
0	14582	16990.103159541376	0
0	14626	17034.572699769315	0
0	14636	17037.614818846693	0
0	14668	17082.754143147714	0
0	14673	17090.152734912248	0
0	14685	17104.518096120223	8.178780352686
0	14696	17116.730496840452	0
0	14714	17138.753202612622	0
0	14728	17156.344765979518	0
0	14733	17164.615892076623	0
0	14743	17187.296826964528	0
0	14768	17234.514534012087	0
0	14779	17238.577252674935	0
0	14791	17245.687580994499	0
0	14821	17269.233131089719	0
0	14828	17274.098552509007	0
0	14832	17283.762958025566	7.557487294618
0	14838	17285.136601549353	0
0	14846	17299.880110726304	0
0	14867	17317.914326477631	6.011933816104
0	14878	17325.984325763758	0
0	14882	17330.686648840782	1.609159065347
0	14891	17354.209327807892	0
0	14916	17371.525301085388	0
0	14923	17379.261062635016	0
0	14932	17384.732170921312	4.932968896956
0	14940	17388.140628427211	2.352287575505
0	14942	17388.18435861143	1.018569976004
0	14953	17393.292521833094	0
0	14958	17399.579024508721	0
0	14963	17422.306765661172	0
0	14968	17426.453660376733	0
0	14975	17429.974012301618	1.374487447074
0	14998	17450.216525280958	0
0	15003	17462.917217548632	0
0	15033	17496.904276211879	0
0	15046	17506.903243354696	0
0	15050	17512.959016886352	1.930578895233
0	15074	17518.16886211456	3.776464690484
0	15076	17519.19099005094	4.114507239687
0	15091	17532.096911487445	0
0	15100	17538.651401341955	4.087372891594
0	15108	17546.148236450401	0
0	15124	17558.056373779104	10.491271195236
0	15138	17565.575526769788	17.216603599094
0	15140	17565.821868018767	14.015033786712
0	15142	17570.250321054187	10.236679021001
0	15153	17581.65627056306	0
0	15158	17593.665520859202	0
0	15171	17627.269996432543	0
0	15198	17676.887658925509	0
0	15216	17713.237150009691	0
0	15228	17727.051422885307	7.581901688245
0	15233	17727.563768817182	6.254527884343
0	15237	17728.683379004858	6.376350299852
0	15246	17731.397512170173	0
0	15252	17741.260455368243	5.330431569957
0	15257	17741.390832005705	0.078855716734
0	15281	17777.179126888538	0
0	15285	17781.032779209896	1.348550479423
0	15293	17787.760094203934	0
0	15303	17808.143922771292	0
0	15318	17826.944028871258	0
0	15322	17835.065257116608	1.664139293554
0	15327	17846.743716699684	8.003079946752
0	15346	17889.312377276593	0
0	15378	17912.419783913586	0
0	15403	17941.744044760749	0
0	15408	17945.826231327268	0
0	15441	17968.163562385399	0
0	15458	18003.610819121192	0
0	15475	18019.577672594996	3.224653444634
0	15483	18028.598297503445	0
0	15493	18059.838359292808	0
0	15497	18062.340267235039	1.89307556205
0	15513	18078.392789866016	0
0	15520	18081.281127737141	0.53820616724
0	15546	18091.425072482017	0
0	15551	18093.390663438957	0
0	15558	18112.829990096718	0
0	15618	18193.720504984131	0
0	15628	18199.621230806099	0
0	15632	18205.585261601834	0.704300478561
0	15641	18217.517589070539	0
0	15666	18231.88463639863	0
0	15683	18248.032270131616	0
0	15708	18297.472590602107	0
0	15718	18315.12246845841	0
0	15723	18325.120714960898	0
0	15727	18330.871072594462	1.450750299031
0	15786	18385.576871438639	0
0	15791	18389.575597115599	0
0	15818	18426.000253387599	0
0	15823	18434.619311131879	0
0	15859	18479.262112252355	0
0	15866	18483.654293040207	0
0	15874	18486.916808995924	0
0	15885	18500.570890234652	3.036789695599
0	15908	18531.25660694767	12.950652714407
0	15928	18544.081374648267	0
0	15936	18555.783931014374	0
0	15973	18616.876581569769	0
0	15982	18622.462396278795	3.946709863622
0	15991	18628.02798761061	0
0	16003	18632.844570441355	0
0	16013	18640.396663731494	0
0	16018	18641.985294411623	0
0	16043	18662.642664862743	0
0	16048	18674.487321156498	0
0	16068	18697.424427779287	19.824137961248
0	16080	18701.0122649206	21.702942370854
0	16092	18714.681883075575	13.213717101339
0	16105	18723.641624373957	7.020339141413
0	16124	18737.943910254052	16.660688838846
0	16126	18738.635260704732	12.535103401364
0	16136	18743.314401524771	6.368487793459
0	16152	18751.976614947583	2.140242516426
0	16158	18762.72370296514	0
0	16188	18813.068251358826	0
0	16192	18818.788753225096	4.400568188078
0	16229	18854.955844756382	0
0	16241	18873.420437099831	0
0	16253	18891.737212258928	0
0	16291	18921.94185517931	0
0	16328	18982.338805371355	0
0	16333	18984.550739722974	0
0	16351	19014.810396336346	0
0	16373	19044.034930273874	0
0	16393	19076.848975625056	0
0	16402	19083.040422144887	5.336863936339
0	16421	19103.669073493969	0
0	16431	19108.603767733076	0
0	16443	19152.090200799267	0
0	16483	19190.799844329154	0
0	16510	19210.595408192245	10.990524616002
0	16536	19232.251075457967	0
0	16566	19274.744875354036	0
0	16572	19278.912376408876	3.998282199288
0	16583	19310.656881367233	0
0	16593	19314.852351946411	0
0	16606	19333.904934779411	0
0	16612	19360.676484148893	22.898503325373
0	16643	19397.232655991854	0
0	16662	19410.912992349555	0
0	16688	19446.657481768055	0
0	16703	19460.620321474838	0
0	16716	19484.494660927094	0
0	16756	19553.855830442208	0
0	16768	19569.432237266364	0
0	16788	19613.074381213432	0
0	16811	19631.6179484122	0
0	16828	19656.54463643534	0
0	16841	19693.10800049752	0
0	16861	19724.369252284311	0
0	16868	19728.038214716	0
0	16881	19754.572759805423	0
0	16901	19779.966758130857	0
0	16918	19787.409178742182	5.490978768512
0	16924	19791.48028357812	0
0	16946	19818.432901923013	0
0	16958	19828.619275594444	0
0	16973	19848.727185937767	0
0	16986	19870.26143583186	0
0	17011	19891.187509946976	4.765138682378
0	17018	19892.176014251901	1.461117751241
0	17022	19896.878421550178	4.930922842884
0	17041	19904.209679455878	3.7125413216
0	17062	19914.035601341915	10.836609699852
0	17075	19928.288460629887	12.875373740056
0	17148	20008.667226271079	0
0	17160	20030.998860346999	17.182128492113
0	17183	20055.557302085307	0
0	17211	20089.702933021506	0
0	17218	20094.363974675448	0
0	17263	20144.869791560588	0
0	17303	20167.754713864404	0
0	17318	20183.618591241088	0.515686171059
0	17386	20317.909689614698	0
0	17391	20325.390860838912	0
0	17415	20343.679641977378	6.267493744531
0	17428	20348.748031516008	0
0	17433	20353.451621751505	0
0	17437	20368.429722069198	0.711557535392
0	17442	20371.8571666018	2.924300122827
0	17447	20376.421348497343	3.201479194478
0	17469	20386.150809530005	0
0	17484	20401.891609212166	0
0	17491	20408.981218331589	0
0	17514	20417.50147171039	8.376526596477
0	17528	20424.38505638476	13.21621714367
0	17532	20428.033717084006	12.670740486689
0	17541	20432.600556221425	0
0	17583	20455.342815079769	0
0	17598	20476.84766858212	0
0	17606	20487.518618785916	0
0	17618	20503.99189751355	0
0	17626	20508.134592942791	0
0	17636	20518.058143729366	0
0	17647	20524.946395654773	2.722667143619
0	17658	20543.108534275469	0
0	17663	20555.776730546129	0
0	17718	20662.785494854017	0
0	17722	20672.690087971539	5.513435013743
0	17741	20684.645451695699	10.159711954589
0	17764	20699.874789078889	25.091178486612
0	17771	20702.647125341212	14.454015714015
0	17773	20703.349623968652	7.005791358753
0	17777	20707.759744356696	5.165084334803
0	17801	20724.080083491355	0
0	17823	20762.282491176003	0
0	17862	20797.059954203474	0
0	17876	20806.306790374175	0
0	17890	20821.648490506225	8.38389215095
0	17895	20829.417538235373	11.249838193847
0	17901	20831.573975325115	0
0	17908	20844.625008626534	0
0	17936	20874.885733780813	0
0	17942	20878.134509936244	0.765741147342
0	17963	20916.583368254542	0
0	17967	20918.887956941255	1.143808339903
0	17972	20921.387339016326	1.39596776838
0	17982	20930.589982008108	6.610232861354
0	17991	20938.535611104833	0
0	18008	20955.405928424754	0
0	18033	20974.37378596177	0
0	18089	21052.59164562518	0
0	18104	21063.132434889683	0
0	18166	21130.590462175725	0
0	18173	21136.319430568774	0
0	18178	21139.224870811199	0
0	18183	21149.380019470728	0
0	18200	21157.053550189129	0
0	18222	21179.497201021971	14.614069245001
0	18261	21220.081104751943	0
0	18281	21239.185554074616	0
0	18286	21246.113377813635	0
0	18298	21255.950972875805	0
0	18318	21281.596689753678	0
0	18322	21288.895425716624	1.570838501491
0	18348	21298.027106771187	7.247043495313
0	18359	21302.932998507774	0
0	18378	21333.200451168803	0
0	18401	21364.865958436406	0
0	18436	21401.623256503388	0
0	18453	21413.333779998076	0
0	18458	21424.254042873983	0
0	18479	21436.934402426604	11.799491192774
0	18503	21450.673841466139	7.391123654096
0	18521	21455.159602625881	0
0	18582	21562.545365142372	0
0	18591	21576.650955364568	0
0	18597	21589.489375857685	8.906893638575
0	18608	21609.90552774308	0
0	18617	21618.251635792316	0.853145897086
0	18623	21628.868854113003	0
0	18631	21631.730552075647	0
0	18643	21645.519579372789	0
0	18659	21660.806419252661	0
0	18693	21708.261127711289	0
0	18698	21715.176523018811	0
0	18718	21769.642763567678	0
0	18736	21806.004727992858	0
0	18777	21860.752715863744	0
0	18799	21872.285869064809	0
0	18807	21876.111851825215	3.560518529511
0	18812	21883.972902190036	1.456775164235
0	18838	21930.246012344294	0
0	18851	21936.602699745716	0
0	18855	21937.097611803647	0.400861967487
0	18863	21940.488264936324	0
0	18868	21955.234369427172	0
0	18893	22010.237308448591	0
0	18897	22014.95632520744	3.077929902729
0	18911	22032.605382017397	0
0	18943	22119.364679453586	0
0	18950	22122.724676033855	0.105086651417
0	18971	22138.278987724379	0
0	18981	22143.487182517775	0
0	18987	22147.116605784794	1.688770100318
0	18992	22156.586962591092	6.125601507436
0	19003	22174.179883104755	0
0	19018	22192.1031547781	0
0	19023	22203.482659622368	0
0	19043	22252.10187231032	0
0	19058	22267.713397461805	0
0	19096	22292.137305149031	0
0	19146	22323.71219985448	0
0	19155	22336.529729351756	7.025974068466
0	19161	22341.821639682847	0
0	19168	22348.330687389525	0
0	19173	22361.681044130885	0
0	19177	22362.396800998924	0.687063144256
0	19183	22370.390966594213	0
0	19212	22405.56227427147	0
0	19231	22421.581157050966	0
0	19241	22431.298458404286	0
0	19248	22440.53461557485	0
0	19259	22468.394474517676	0
0	19278	22497.14781544591	0
0	19288	22505.103346257766	0
0	19293	22520.696495756595	0
0	19322	22555.862687271431	0
0	19331	22559.692988299997	0
0	19363	22592.720893148266	0
0	19410	22661.105483199038	0
0	19469	22729.742269571897	0
0	19498	22759.335500355672	0
0	19514	22773.627754771478	0
0	19529	22786.112670240724	0
0	19536	22790.909220291712	2.022491702691
0	19538	22791.094816189402	1.195375950331
0	19547	22797.648285056559	2.55781714167
0	19558	22803.827590147866	0
0	19596	22843.894077379786	0
0	19603	22847.034431465615	0
0	19613	22853.454058419719	0
0	19623	22860.141660877759	0
0	19638	22884.702073916117	0
0	19659	22913.655175729669	0
0	19681	22944.65902125376	0
0	19688	22950.258235599977	0
0	19695	22954.518447023855	3.148588157482
0	19709	22959.516291899922	3.981530854571
0	19713	22966.536814924609	10.088551494444
0	19724	22971.275371616297	0
0	19743	22996.222365202276	0
0	19747	23011.633477907391	9.181188212311
0	19776	23046.377986523733	0
0	19806	23105.008361798889	0
0	19818	23127.771822384409	0
0	19823	23131.56903555394	0
0	19838	23142.742232766106	0
0	19845	23160.290966508567	11.09785377073
0	19856	23173.801116629074	0
0	19889	23194.881629938174	0
0	19907	23211.799773744545	0
0	19928	23245.13954426461	0
0	19958	23281.688569299273	0
0	19990	23305.223950897816	0
0	20011	23328.274913101002	0
0	20031	23344.919839081058	0
0	20041	23353.562140719416	0
0	20069	23373.390795634537	0
0	20108	23398.806144119669	0
0	20119	23407.050894588662	0
0	20151	23442.885590071756	0
0	20166	23455.633548203557	0
0	20181	23473.231395636249	0
0	20192	23484.918792200502	8.457288580493
0	20198	23500.421838337914	0
0	20202	23506.775515010135	2.603668265421
0	20218	23531.457695396146	0
0	20226	23540.244149862468	0
0	20230	23541.789924908912	1.191970812236
0	20248	23547.107292994821	0
0	20293	23601.964609794345	0
0	20300	23604.126950536901	0.290214771596
0	20330	23640.693077431421	0
0	20339	23649.073444370555	4.879086288774
0	20373	23682.028510868812	0
0	20381	23695.658504282614	0
0	20390	23700.258168692207	1.558006416537
0	20396	23702.200048488529	0
0	20411	23719.353708784254	0
0	20416	23722.824804115948	0
0	20426	23736.314623449754	0
0	20436	23756.379428391987	0
0	20448	23762.444694717296	0
0	20453	23781.063014448168	0
0	20468	23807.174443726691	0
0	20483	23833.20374222203	0
0	20498	23847.532069733589	0
0	20507	23857.540184611201	2.925904480016
0	20513	23871.758575274034	0
0	20553	23918.894582346715	0
0	20563	23961.646088193166	0
0	20576	23973.012819781573	0
0	20592	23988.584365277699	0
0	20601	23993.007803156816	0
0	20618	24005.39764079246	0
0	20638	24034.385309273071	0
0	20648	24043.299289985464	0
0	20672	24058.713183333969	0
0	20699	24078.754728022988	0
0	20708	24082.154191418237	2.541760439049
0	20743	24122.73207234982	0
0	20773	24152.164505189528	0
0	20777	24159.465790877125	0.719819055125
0	20785	24164.14858140291	3.492953221872
0	20812	24180.279401375043	0
0	20823	24188.030542454427	0
0	20827	24192.220527671693	3.606037324816
0	20846	24216.359261030036	0
0	20868	24243.436439851834	0
0	20872	24249.228093567657	5.365630109583
0	20881	24256.789158270033	0
0	20901	24289.992104524612	0
0	20909	24291.125477814265	0
0	20948	24343.472083979671	0
0	20956	24348.788065693826	0
0	20961	24350.611228150522	0
0	20968	24374.375152605747	0
0	20990	24400.766726590194	14.977617582013
0	20995	24402.399027595021	6.160965723204
0	21031	24424.235197855771	0
0	21046	24451.33549799398	0
0	21061	24473.278505897112	0
0	21078	24482.607209392762	0
0	21096	24502.361258151697	0
0	21110	24516.687998764374	14.128752149439
0	21112	24524.934404922918	12.762891997251
0	21118	24540.266709567952	0
0	21123	24553.1657309918	0
0	21138	24587.421730264719	0
0	21147	24600.754100703219	0.062810622098
0	21157	24610.173132395248	1.454902048236
0	21183	24631.077901934297	15.384960616334
0	21193	24653.389409068811	0
0	21206	24683.065814157619	0
0	21213	24699.022008975232	0
0	21223	24713.411250533143	0
0	21246	24740.946317723308	0
0	21278	24795.12313206551	0
0	21293	24821.763588232648	0
0	21308	24849.858912258179	0
0	21348	24892.371953099509	0
0	21373	24920.945708155083	0
0	21378	24942.644967362788	0
0	21383	24950.509280351641	0
0	21393	24961.139280029952	0
0	21398	24965.131028041384	0
0	21403	24987.586887318953	0
0	21421	25008.904843855851	0
0	21428	25019.933759971987	0
0	21433	25021.77181761065	0
0	21441	25024.51902870619	0
0	21506	25097.796239005634	0
0	21521	25106.669780993296	0
0	21526	25113.704977212197	0
0	21534	25118.212869853973	0
0	21548	25147.429618261673	0
0	21552	25148.819452551251	0.465704934206
0	21562	25154.258715731385	4.257393435896
0	21568	25169.925976290843	0
0	21583	25213.824880628227	0
0	21588	25218.45924543764	0
0	21604	25225.416761974342	0
0	21613	25231.011420276394	3.600335377446
0	21622	25239.583487428579	0
0	21639	25257.4297348439	0
0	21653	25293.074610361354	0
0	21658	25300.741265537193	0
0	21666	25309.033105058462	0
0	21673	25315.634224169585	0
0	21678	25321.330062809432	0
0	21688	25344.170937262033	0
0	21708	25405.909651600872	0
0	21718	25432.029434219463	0
0	21738	25447.366791854541	0
0	21746	25455.841341324814	0
0	21751	25456.528651884569	0
0	21771	25464.088871905705	1.405168727875
0	21783	25468.20834283163	2.990566393114
0	21794	25469.582651912856	0
0	21803	25474.55804149014	0
0	21811	25488.892200670767	0
0	21834	25509.199605639676	0
0	21854	25525.11590873181	0
0	21866	25542.761732782969	0
0	21888	25574.408536411734	0
0	21908	25600.350923834603	0
0	21916	25604.119163826686	0
0	21921	25609.522188953582	0
0	21928	25614.335491235105	0
0	21944	25625.420136186496	0
0	21980	25698.327739306476	0
0	21998	25704.383909320107	0
0	22016	25711.435373229034	0
0	22028	25736.667281884519	0
0	22032	25750.67551727659	11.682818033025
0	22044	25761.383542964492	0
0	22109	25842.123176582185	0
0	22139	25876.427068854332	0
0	22153	25887.65074785152	0
0	22168	25896.179902316508	0
0	22173	25897.524478184464	0
0	22181	25912.734515253385	0
0	22201	25933.643859240168	0
0	22216	25953.44049729508	0
0	22224	25957.38099328508	0
0	22232	25963.681429202769	0
0	22242	25970.885105351576	0
0	22263	25987.912454337131	9.094204732212
0	22267	25996.440003221446	12.278974907405
0	22272	25998.889692126134	1.960184926021
0	22280	26010.711662078808	5.304607218298
0	22282	26011.880076331361	4.353369292989
0	22288	26016.516465592025	0
0	22299	26022.807440099693	0
0	22338	26091.226443014016	0
0	22351	26118.051244325882	0
0	22373	26143.686093153446	0
0	22383	26151.119538762081	0
0	22393	26164.101403216333	0
0	22406	26169.877850972153	0
0	22425	26187.664199547527	14.903833713297
0	22444	26203.259342647372	18.500323047559
0	22448	26206.087766305797	15.561106273673
0	22455	26208.748311919234	10.849196654696
0	22488	26247.562504439841	0
0	22492	26251.535383768151	1.012663761038
0	22505	26264.35467563555	8.438942218122
0	22517	26266.642453747468	7.555242621838
0	22523	26273.840795892506	0
0	22558	26337.644434005112	0
0	22574	26352.919795686558	0
0	22598	26400.167175052625	0
0	22608	26419.201370499731	0
0	22623	26434.256985843677	0
0	22628	26440.347046418657	0
0	22638	26467.557710087351	0
0	22642	26469.051898096702	1.31201794427
0	22683	26534.08880327639	0
0	22761	26621.41161126002	0
0	22771	26629.486733121633	0
0	22781	26637.718507494164	0
0	22788	26642.053426001	0
0	22797	26648.327837879869	2.21653306929
0	22802	26652.691833779321	3.30734324021
0	22816	26660.560169630795	0
0	22833	26671.85289882476	0
0	22857	26698.355503273273	0
0	22868	26714.40709145944	0
0	22876	26718.755677263395	0
0	22898	26735.22227519112	14.037798458732
0	22900	26743.944360753056	13.68133041534
0	22908	26751.624621375116	0
0	22928	26763.887637210449	11.87050461719
0	22938	26771.242774953179	8.839307322969
0	22978	26822.851802342669	0
0	22983	26827.622035453735	0
0	22990	26834.25375856761	5.836299136183
0	23030	26860.35135064363	28.113809306715
0	23032	26860.379044377929	17.63501740296
0	23038	26860.662293609073	0
0	23046	26870.840343348272	0
0	23051	26871.984127343404	0
0	23061	26876.066002168941	0
0	23094	26900.380690152066	0
0	23108	26909.243402492812	0
0	23119	26925.633861713693	0
0	23158	26979.491293175006	0
0	23162	26984.213533688771	1.608646231634
0	23193	27030.613285874271	0
0	23198	27041.715028992628	0
0	23203	27043.462462361346	0
0	23223	27061.860381227185	0
0	23238	27066.459750692815	0
0	23262	27093.612163650483	0
0	23274	27106.829138063305	0
0	23292	27118.09013811254	0
0	23301	27130.200030575445	11.44990026562
0	23306	27131.31534916744	9.669672330165
0	23318	27138.357537558283	5.640960734559
0	23328	27147.22574413624	0
0	23332	27154.730302129789	0.151851318104
0	23366	27194.137546178856	0
0	23388	27239.135969457342	0
0	23395	27251.049109741287	4.785094801784
0	23397	27253.626068309375	6.22514919951
0	23423	27272.394759035213	0
0	23433	27292.934467495355	0
0	23443	27306.620463437175	0
0	23456	27320.01937250691	0
0	23466	27326.494221396339	0
0	23470	27326.64170720616	0.116074215207
0	23498	27351.524599608748	0
0	23507	27357.759186111184	1.881287570756
0	23516	27378.412030091904	0
0	23528	27383.521746156561	0
0	23533	27385.819136602245	0
0	23553	27416.214496443736	0
0	23563	27434.41941255439	0
0	23572	27441.512025100047	6.291962855628
0	23582	27448.266276664636	1.323824502174
0	23593	27459.392275052366	2.492831076034
0	23602	27461.147533689258	0
0	23676	27520.692306755831	0
0	23683	27533.523910133857	0
0	23688	27535.359508688117	0
0	23692	27537.776105265993	0.427172671247
0	23723	27568.99686947542	0
0	23728	27583.078684972558	0
0	23753	27613.11832367087	0
0	23758	27622.153730661561	0
0	23768	27636.617840740431	0
0	23781	27649.925477698633	0
0	23802	27680.47582155164	0
0	23826	27716.23440098055	0
0	23868	27769.762252616045	0
0	23872	27773.716862669888	1.40023198309
0	23919	27844.606081472925	0
0	23933	27857.152471074182	0
0	23946	27876.509372286952	0
0	23953	27889.710746520439	0
0	23968	27912.495937092834	0
0	23976	27918.167331157838	0
0	23988	27935.450800956349	0
0	23993	27941.378550033853	0
0	23997	27945.020170544203	1.101065101243
0	24033	27996.23437262772	0
0	24048	28018.465154705843	11.037160361902
0	24059	28027.307727612553	19.086874721333
0	24061	28029.182131756242	17.348974487829
0	24109	28071.97735313346	0
0	24113	28073.38100342104	0.435397895496
0	24137	28089.058076549991	6.469689121089
0	24148	28099.522302220365	0
0	24156	28104.20377585805	0
0	24178	28113.743066317502	0
0	24188	28118.610573570187	0
0	24192	28120.07855114813	1.018523416485
0	24203	28142.286126713531	0
0	24213	28146.399048923482	0
0	24218	28155.155987571229	0
0	24228	28158.537026662575	1.124433267255
0	24243	28186.136640701297	0
0	24253	28194.594169149118	0
0	24258	28199.413319550861	0
0	24263	28201.387873481846	0
0	24296	28228.901801217844	0
0	24316	28246.338569000708	0
0	24331	28262.473160404177	0
0	24338	28268.44930243931	0
0	24350	28281.958377798405	10.2642390854
0	24388	28314.315971252129	0
0	24431	28358.079634821087	0
0	24446	28367.35877262731	0
0	24453	28388.912494978397	0
0	24473	28399.677754544694	0
0	24483	28408.656117251563	0
0	24518	28449.481797173198	0
0	24529	28457.106108156079	0
0	24541	28461.33285825749	0
0	24553	28470.713009855372	0
0	24557	28475.055336132565	1.176074324834
0	24562	28480.929159115553	0.597386409542
0	24575	28507.555485427158	19.773660261082
0	24583	28513.946863151262	7.088028619185
0	24591	28521.906441139404	0
0	24603	28536.697918602398	0
0	24626	28553.055518526198	0
0	24656	28588.288406212036	0
0	24660	28590.931443199695	0.245943912848
0	24665	28593.122884329689	0.676022007213
0	24686	28614.26247217491	0
0	24726	28634.405606081888	0
0	24798	28705.345686943558	0
0	24802	28712.310347759072	0.051179113451
0	24813	28732.326092156592	0
0	24828	28767.067744147004	0
0	24838	28775.845529282693	0
0	24848	28794.418891725082	0
0	24858	28816.990911648126	0
0	24873	28845.823151911738	0
0	24893	28898.099479375515	0
0	24908	28931.870320224517	0
0	24916	28939.564551908028	0
0	24938	28961.989071033556	0
0	24954	28997.204474276453	0
0	24963	29008.519213140473	0
0	24971	29019.305565908014	0
0	25003	29049.186543330661	0
0	25029	29090.230704969819	0
0	25047	29101.827310404796	0
0	25054	29111.679781552715	0.76460251229
0	25073	29134.18257727793	0
0	25083	29147.249863060445	0
0	25091	29148.697382105772	0
0	25121	29179.850095727722	0
0	25139	29218.375189668272	0
0	25168	29255.751174336204	0
0	25184	29274.79904153863	0
0	25193	29281.425288271388	0
0	25203	29291.837068684403	0
0	25207	29295.586659187785	2.467568455596
0	25233	29322.283076585973	0
0	25238	29325.659581589867	0
0	25249	29338.595735401273	0
0	25258	29349.29693401703	0
0	25263	29357.982323240815	0
0	25273	29365.367871728139	7.169243616834
0	25308	29394.076730800081	0
0	25318	29411.234868915327	0
0	25323	29412.993133970168	0
0	25334	29424.109161676037	0
0	25345	29426.084070085404	1.881168282764
0	25352	29436.379119828558	11.174623844338
0	25357	29438.570744426145	2.041719794176
0	25363	29440.848940790154	0
0	25368	29454.905523895263	0
0	25376	29460.407581384611	0
0	25399	29480.479191593976	0
0	25461	29586.160934864816	0
0	25466	29588.559903737412	0
0	25478	29610.556960924014	0
0	25488	29615.607548208096	0
0	25493	29621.497926006567	0
0	25503	29633.7895186783	0
0	25511	29638.054003174786	0
0	25533	29651.600661315733	0
0	25542	29655.160155525292	1.319478878442
0	25551	29669.289563444986	0
0	25562	29680.663831802226	0
0	25575	29696.58106927045	15.844827886022
0	25580	29697.1748122073	6.961585513802
0	25603	29725.598260460202	0
0	25621	29739.086370782952	11.399912140937
0	25623	29740.394835733076	12.649701768741
0	25628	29749.684242683077	21.337927894723
0	25630	29750.983725051643	16.951526313152
0	25641	29772.77161807701	0
0	25654	29792.645679618719	0
0	25661	29817.156995510343	0
0	25673	29831.662327723584	0
0	25704	29859.264201078899	0
0	25723	29866.368123007873	0
0	25730	29876.090130344174	1.035576590355
0	25746	29886.804091796226	0
0	25793	29919.078985994529	0
0	25839	29957.266162961798	0
0	25848	29982.731923043528	0
0	25868	30018.441625046332	0
0	25879	30028.550425954412	0
0	25901	30043.522826816803	0
0	25923	30081.76659846942	0
0	25954	30105.310510100725	0
0	25969	30124.844773306872	0
0	25984	30147.896030510547	0
0	25988	30151.653234397186	0.186829601894
0	26004	30165.874647186526	0
0	26012	30170.052703124136	0
0	26037	30189.775436232838	0
0	26069	30237.952072107672	0
0	26085	30248.267741815811	0
0	26093	30252.211060484737	0
0	26133	30279.09504031878	0
0	26146	30284.938317824557	0
0	26187	30321.350057279033	0
0	26194	30349.369313753107	0
0	26222	30375.834642371016	0
0	26239	30385.410245026087	0
0	26253	30410.13810220381	0
0	26257	30412.045158733167	1.152592779936
0	26287	30427.944528447648	9.488598974473
0	26309	30433.155491538673	0
0	26327	30456.369467769867	0
0	26373	30494.390196413413	0
0	26377	30497.668259376555	0.86222942857
0	26388	30510.286340074108	0
0	26395	30511.945147328216	1.62028779155
0	26411	30532.071412426619	0
0	26436	30556.992721402711	0
0	26440	30563.025342002229	0.526897972031
0	26458	30590.343676194348	0
0	26479	30606.198530765438	0
0	26488	30618.824494801508	0
0	26498	30632.585055365282	0
0	26508	30643.232741745817	0
0	26523	30656.461495500493	0
0	26546	30685.247497577828	28.446906050401
0	26550	30688.280395781539	27.810199260181
0	26552	30688.871135450169	20.460289271019
0	26571	30708.855398502676	0
0	26583	30737.110105037074	0
0	26588	30737.452614426353	0
0	26598	30740.799276589475	2.991195263564
0	26600	30741.357649680774	3.416746381457
0	26623	30763.16126795968	20.110208715371
0	26640	30772.856609006888	27.663404606737
0	26642	30778.891865092169	24.968533968553
0	26647	30780.084148790407	7.535725074554
0	26651	30786.556012373983	13.729938191533
0	26676	30813.027739942397	0
0	26686	30815.800574761488	0
0	26698	30848.26432349562	0
0	26707	30864.727961975817	14.836903839324
0	26722	30877.551050997692	0
0	26739	30889.533295183482	0
0	26761	30909.504144981222	10.77991247119
0	26763	30915.090002145125	15.023453996129
0	26765	30915.261998969513	7.669945215497
0	26778	30921.433458670007	4.382929694951
0	26793	30934.60866461337	0
0	26800	30937.840236454427	1.284798908816
0	26856	30988.377389128815	0
0	26876	30998.038213113374	1.853071828588
0	26916	31054.726795610711	0
0	26949	31083.385045857138	0
0	26967	31093.964866369011	0
0	26975	31102.089603747386	3.77242230323
0	27013	31176.884564295686	0
0	27027	31189.719396878676	3.656514437602
0	27035	31193.004578723485	1.812637714512
0	27048	31201.915703103672	0
0	27059	31218.588725734817	0
0	27067	31235.593512849264	2.916531313168
0	27075	31247.605363116783	9.882238208028
0	27105	31264.971034529972	15.21167247784
0	27186	31382.468149018064	0
0	27241	31441.305630803751	0
0	27256	31459.087258994234	0
0	27266	31465.054176271434	3.09224839255
0	27273	31472.393649658923	5.612056830725
0	27284	31477.137078381023	0
0	27294	31482.137979770651	0
0	27306	31487.856578748853	0
0	27324	31501.025498097618	0
0	27336	31508.481255684578	0
0	27346	31525.175772081752	0
0	27358	31547.625460784009	0
0	27369	31557.759577254539	0
0	27374	31563.93218625694	0
0	27383	31595.539293780434	0
0	27446	31677.811393632058	0
0	27453	31681.400120016515	0
0	27458	31682.504946301115	0
0	27467	31690.104229261434	2.466846863627
0	27483	31710.546437611576	0
0	27488	31721.210034419726	0
0	27507	31731.916752369926	0
0	27518	31745.32553849946	0
0	27523	31748.46225356146	0
0	27539	31758.01941915451	0
0	27606	31824.842597267379	0
0	27616	31846.732390200897	0
0	27636	31864.769229528152	0
0	27648	31869.768957309871	3.082944214814
0	27650	31870.951224701826	1.670151768748
0	27656	31872.627104030914	0
0	27666	31875.778779469825	0
0	27693	31897.251104150749	20.726225670471
0	27698	31901.685056409463	18.795295197448
0	27714	31915.325196217063	19.4287088039
0	27719	31916.04775723493	16.207336275574
0	27724	31919.197965599167	15.589527535074
0	27738	31933.434082879507	26.419458843337
0	27743	31934.197197854953	25.744604018541
0	27751	31953.634659298479	37.782295336527
0	27753	31954.840037934827	20.67524599204
0	27776	31972.130895029189	29.814672922332
0	27783	31977.684992827511	24.907203628583
0	27788	31984.4046789234	22.205950860034
0	27801	31998.179816816763	0
0	27849	32034.899840244389	0
0	27886	32090.425693796862	0
0	27911	32132.994106695317	0
0	27923	32142.807665727124	0
0	27940	32158.560270842619	14.84457319299
0	27942	32163.020012511485	6.072825134066
0	27956	32185.950144206085	0
0	27996	32221.801522998874	0
0	28008	32251.293245060231	0
0	28012	32257.84479857076	1.383129955622
0	28018	32264.402395997175	0
0	28026	32272.673174443962	0
0	28033	32291.878723286672	0
0	28051	32324.051151520074	0
0	28084	32357.549744681345	0
0	28093	32368.169771461751	0
0	28097	32383.267756574426	11.127685546897
0	28110	32404.659605369912	16.883711627339
0	28112	32405.096460897222	13.532110758419
0	28143	32447.309978900221	0
0	28150	32448.286645277778	0.863560182398
0	28166	32463.201044011086	0
0	28176	32467.918519182754	0
0	28180	32470.433873809936	0.336931660095
0	28186	32476.186500587591	0
0	28196	32481.131930758345	2.136018314402
0	28198	32484.455921714484	3.334318080013
0	28206	32492.073554714442	0
0	28213	32496.613059704849	0
0	28226	32504.603280491385	0
0	28268	32590.006357702437	0
0	28282	32594.658989390459	0
0	28289	32598.900729719917	0
0	28308	32622.751166899997	0
0	28317	32632.419365956608	5.50756363619
0	28338	32671.761532856232	0
0	28376	32748.232597270335	0
0	28391	32804.352887548605	0
0	28413	32832.561858789287	0
0	28418	32837.397766814101	0
0	28448	32861.39111264632	0
0	28452	32865.051970541816	0.931543610675
0	28486	32892.508637890755	0
0	28502	32904.611370782351	0
0	28513	32913.866773750837	0
0	28517	32919.866792028597	3.337074894603
0	28541	32960.823893406914	0
0	28547	32965.379471741648	1.780971945418
0	28563	32981.499620522339	0
0	28573	33013.221613530303	0
0	28616	33067.04694634758	0
0	28623	33074.234821068246	0
0	28673	33180.123036806495	0
0	28681	33194.77895088672	0
0	28692	33211.190381807044	3.21965520387
0	28708	33219.889478590469	0
0	28723	33243.094479048352	0
0	28738	33260.216267561085	0
0	28742	33262.888612314067	2.097361156267
0	28756	33269.714472951595	0
0	28771	33283.641948421774	0
0	28791	33301.178217636554	0
0	28813	33326.033149691144	0
0	28828	33372.421612982775	0
0	28844	33389.67353438575	0
0	28869	33410.715677449254	0
0	28916	33457.120098279324	0
0	28929	33475.917708976291	0
0	28946	33480.987130774819	0
0	28973	33509.374648284947	0
0	28998	33533.520713754137	0
0	29012	33543.144844268762	0
0	29023	33556.820674088223	0
0	29074	33623.943606139049	0
0	29096	33642.430629524702	0
0	29114	33656.391392287493	7.729482869824
0	29154	33668.238891863425	0
0	29160	33672.955854536136	3.108321241247
0	29178	33726.15835109713	0
0	29201	33740.015617370757	0
0	29221	33772.501133869091	0
0	29228	33775.917028559587	0
0	29251	33800.662809428517	14.867468155588
0	29253	33804.384965029223	18.179632861065
0	29270	33815.424059900787	21.935371471855
0	29278	33821.083216280874	0
0	29300	33842.235176556711	0
0	29305	33853.840058457959	0
0	29310	33856.677804537607	0
0	29366	33903.573919652737	0
0	29394	33919.420982653207	0
0	29403	33925.700753046781	0
0	29408	33928.146106181363	0
0	29426	33944.697900845531	0
0	29430	33949.977605456098	4.674137777191
0	29441	33954.372152535153	0
0	29451	33986.789308440254	0
0	29458	33998.140272022192	0
0	29463	34009.280921927272	0
0	29467	34014.324863797439	3.882456939315
0	29482	34023.016323200252	0
0	29503	34060.579170879908	0
0	29518	34075.457907721829	0
0	29523	34075.654632195007	0
0	29553	34107.821712698357	0
0	29558	34116.206892075538	0
0	29563	34119.463797955764	0
0	29567	34126.488114100018	5.817128546134
0	29581	34137.827412683999	0
0	29606	34189.423171673921	0
0	29648	34247.43858394405	0
0	29663	34270.838103993711	0
0	29689	34309.292711285808	0
0	29731	34349.782183190006	0
0	29743	34375.610067619814	21.554540977419
0	29747	34384.270816871836	27.542846972084
0	29761	34396.027604092112	0
0	29765	34398.427189600756	1.372182733162
0	29783	34416.261312208184	0
0	29803	34444.756352690072	0
0	29813	34454.465904478138	3.652206101172
0	29844	34472.567189096304	0
0	29851	34482.734882355886	2.629643218904
0	29864	34491.194935154278	5.654574435396
0	29866	34496.420063284432	6.398023186153
0	29892	34515.856346883453	24.877173266724
0	29906	34530.620844329303	0
0	29916	34534.637634769338	0
0	29933	34555.022341555937	0
0	29988	34641.419945565885	0
0	29998	34650.312766185617	0
0	30018	34687.665250952193	0
0	30036	34727.712307023664	0
0	30048	34738.647545600596	0
0	30113	34843.171539778814	0
0	30117	34846.9867468753	2.773900270994
0	30122	34847.737765801096	0.640058234746
0	30127	34856.504938244139	4.330175013739
0	30144	34877.726252748336	0
0	30153	34889.984546313914	0
0	30161	34898.752364683992	0
0	30173	34914.915298810917	0
0	30186	34927.917175209642	0
0	30211	34963.153663398987	0
0	30217	34972.827796421131	3.135246929717
0	30226	34983.967797872766	0
0	30236	35000.083664446856	0
0	30246	35010.843098114696	0
0	30298	35077.425917843921	0
0	30328	35103.899219555978	0
0	30345	35119.057040687287	10.12575775228
0	30347	35122.079963418137	12.975829853969
0	30356	35124.498764439163	0
0	30371	35149.960302369454	0
0	30413	35213.432158435025	0
0	30425	35224.101109380777	4.939016492001
0	30439	35243.00602711635	0
0	30450	35248.798562504861	3.648830133725
0	30468	35254.205244383915	3.962303077226
0	30494	35283.845383383213	0
0	30538	35318.232113812976	0
0	30545	35324.010924140793	2.12815808423
0	30547	35327.600776693243	4.147176404886
0	30568	35380.930721011174	0
0	30590	35389.265818804148	0
0	30623	35428.507107242473	0
0	30631	35435.064628496691	0
0	30636	35439.854671867221	0
0	30642	35446.683599482421	3.06065520763
0	30651	35448.980264312478	0
0	30658	35456.759575528011	0
0	30674	35460.412665052812	0
0	30681	35464.111806451316	0
0	30696	35486.707487998691	0
0	30703	35493.206480704235	0
0	30707	35494.685714702006	0.762902177817
0	30712	35496.416132592955	0.99584254529
0	30747	35509.99703550745	0
0	30755	35512.007873815936	0
0	30764	35517.493909224561	3.649238250434
0	30775	35532.836146662679	0
0	30780	35538.710556988892	0
0	30787	35547.962813718524	1.358944822769
0	30810	35566.08347270627	0
0	30838	35596.226980866922	0
0	30843	35604.537235029313	0
0	30847	35607.819661589894	1.549423141103
0	30858	35621.529945976155	2.520492609301
0	30860	35622.579065558961	1.468598901135
0	30875	35639.737819028411	0
0	30889	35654.27242885143	0
0	30895	35655.003657589772	0.565524227019
0	30901	35660.145442982536	0
0	30905	35660.872811428806	0.559861532766
0	30921	35669.545514825351	0
0	30931	35674.651980468618	0
0	30953	35688.422432554015	0
0	30960	35695.604530795848	2.468297733
0	30990	35730.642606052421	0
0	31031	35783.831624861785	0
0	31047	35797.742923709087	0
0	31054	35809.052895612399	0
0	31064	35819.967319367446	0
0	31094	35845.741715252961	0
0	31103	35864.681028452707	0
0	31108	35872.218688798197	0
0	31113	35880.418330810548	0
0	31128	35901.841730853699	18.526639929314
0	31132	35904.963710991152	12.592099536981
0	31145	35910.218809900037	5.139226083656
0	31178	35933.924488748285	0
0	31206	35955.461396835906	0
0	31216	35971.43371609491	0
0	31228	35991.113235700691	0
0	31233	36022.980015182426	0
0	31241	36028.500861442426	0
0	31246	36035.010492153365	0
0	31263	36066.598852081634	0
0	31284	36083.559746791524	0
0	31300	36093.505423579873	2.356725777573
0	31311	36101.335503230577	8.446321231555
0	31319	36104.429399498634	0
0	31363	36162.65772620347	0
0	31381	36193.474317347001	20.565866542154
0	31392	36197.231419136504	0
0	31402	36204.355646650324	0
0	31427	36233.529772693737	0
0	31456	36273.663175433485	0
0	31473	36292.453678042195	0
0	31477	36297.839315603223	1.373776564468
0	31488	36316.815463499445	0
0	31492	36325.422405817784	2.611778883494
0	31513	36336.981826312762	0
0	31522	36372.622611813647	2.08678868379
0	31542	36406.212302016812	0
0	31561	36420.713564664074	0
0	31571	36450.606792601429	0
0	31583	36466.573130700038	0
0	31616	36490.68405783273	21.17152985041
0	31618	36492.891889572038	23.352927090128
0	31625	36501.369784742269	16.394785022961
0	31627	36502.468914595777	12.824708649889
0	31649	36520.033241845014	0
0	31683	36580.733387275305	0
0	31690	36600.357362341342	8.898335973829
0	31692	36600.793504729954	1.306968104575
0	31698	36602.822985097751	0
0	31719	36624.930709333544	0
0	31724	36627.633033250004	0
0	31732	36641.54692925579	8.090749647364
0	31753	36689.66822744891	0
0	31758	36700.712484336453	0
0	31763	36703.982240560887	0
0	31786	36727.674874217082	0
0	31822	36766.178337064686	0
0	31827	36771.657467864613	0
0	31838	36787.552534813223	0
0	31853	36799.637128177277	0
0	31871	36816.252200083487	0
0	31886	36837.060602713308	0
0	31896	36850.007823007275	0
0	31912	36859.723378103466	6.312850500497
0	31929	36875.562814363871	0
0	31946	36895.16870265351	0
0	31974	36916.878417815335	0
0	31991	36926.906842528419	0
0	32016	36942.190660815912	0
0	32042	36966.549564561047	0
0	32053	36985.754686576244	0
0	32083	37024.963906098358	0
0	32108	37048.439477123151	0
0	32118	37058.132959911827	0
0	32126	37075.836110484537	0
0	32137	37077.712989423001	0
0	32153	37081.106500894133	0
0	32164	37086.078088961121	0
0	32176	37094.699375230583	0
0	32196	37105.680979741307	0
0	32203	37116.511979454145	0
0	32218	37134.44429828056	0
0	32226	37138.594207744538	0
0	32233	37150.522325215509	0
0	32263	37226.403028562843	0
0	32272	37229.200062647373	2.736244615859
0	32286	37257.59016773028	0
0	32298	37264.115514982359	0
0	32318	37288.918729281034	0
0	32328	37292.696969592982	0.923022867008
0	32336	37303.231199827188	0
0	32341	37305.66887261655	0
0	32359	37324.939832747372	0
0	32378	37337.96384223809	0
0	32409	37377.118129887578	0
0	32420	37391.741138263487	14.216201362549
0	32442	37407.910614930204	0
0	32461	37432.203890373367	0
0	32524	37471.358209537676	0
0	32531	37474.390425724743	0
0	32569	37504.361815559658	0
0	32582	37518.049237860976	0
0	32588	37523.71192964193	4.349587967527
0	32629	37554.959643699892	0
0	32646	37576.732407924166	0
0	32661	37632.638084186847	0
0	32683	37678.962518685428	0
0	32723	37723.6352254355	0
0	32731	37727.325755317578	0
0	32753	37742.180332974702	14.34150174828
0	32774	37763.918661262046	0
0	32781	37770.440163625072	0
0	32794	37802.458762265922	0
0	32816	37813.9014267522	0
0	32822	37818.045879225266	3.35598702671
0	32828	37838.474472295434	0
0	32863	37877.520410443819	0
0	32876	37888.607246588199	0
0	32883	37896.375687071012	0
0	32892	37899.229982178889	2.43707807123
0	32912	37928.755600955126	0
0	32926	37952.798721955787	0
0	32941	37967.351622241699	0
0	32956	37973.671084489724	0
0	32965	37983.736615074171	8.351185143522
0	32984	37995.16733173914	0
0	33007	38022.115531393349	0
0	33012	38024.221687942255	0
0	33044	38053.739907870066	0
0	33056	38061.300045152271	0
0	33074	38074.729627174888	0
0	33091	38094.613348919256	0
0	33107	38103.234703568705	7.919535113304
0	33113	38105.977218460326	0
0	33127	38114.670604045489	2.957561608484
0	33133	38120.38334026658	0
0	33181	38193.817742383542	0
0	33223	38269.083532944745	0
0	33257	38296.452350107793	0
0	33275	38317.866544223192	16.974976582361
0	33288	38343.05205577057	0
0	33306	38350.356637372402	5.962564925196
0	33315	38354.023199458186	8.213328571027
0	33326	38360.354732095854	0
0	33331	38362.443186093236	0
0	33344	38369.440222419606	0
0	33398	38430.969279280268	0
0	33416	38471.623929047121	0
0	33422	38483.727025747233	1.575294683643
0	33430	38489.512260709981	4.080497124088
0	33432	38492.942754882951	5.204446884831
0	33448	38526.570655766065	0
0	33452	38527.254370155221	0.227504364046
0	33461	38538.525244988222	0
0	33466	38540.201612502714	0
0	33491	38585.877545409168	0
0	33495	38593.097485284289	4.681342821669
0	33501	38593.803623529434	0
0	33521	38625.938195497942	0
0	33531	38635.542018732601	0
0	33543	38643.012598407545	0
0	33564	38664.045404114119	0
0	33568	38669.098653642357	1.420332023106
0	33583	38688.180528995984	0
0	33595	38703.24700825528	8.536311414577
0	33628	38726.37152449436	0
0	33648	38759.504833116169	0
0	33691	38833.176224031307	0
0	33728	38864.679008670356	0
0	33741	38876.067595519902	6.625862787389
0	33750	38888.91053236856	18.184945264227
0	33752	38890.002636279373	17.41655943501
0	33761	38897.034839973367	0
0	33767	38911.387650974253	7.880061963484
0	33773	38923.322000555389	0
0	33839	38999.810096322093	0
0	33848	39003.582887084284	0
0	33858	39020.925851921472	0
0	33871	39045.959825048969	0
0	33875	39054.921205756179	4.166406625637
0	33886	39068.218825977124	0
0	33903	39104.072281554507	0
0	33913	39116.009190353429	0
0	33941	39156.149516119139	0
0	33948	39174.249332569544	0
0	33952	39175.630258094117	1.345700098942
0	33957	39179.77633307422	4.040597888568
0	33966	39181.435778190772	0
0	33980	39194.125413835285	10.228598328765
0	33982	39198.971520576887	5.894972650852
0	33999	39204.961982056136	0
0	34010	39207.760007152167	0
0	34017	39221.127175549709	0
0	34038	39233.225749949304	0
0	34046	39246.301395238962	0
0	34050	39251.6800231237	2.987840274688
0	34057	39257.694215481155	1.436909529323
0	34078	39283.068306900774	0
0	34083	39293.906309625729	0
0	34103	39315.329064742718	0
0	34123	39366.931610885694	0
0	34141	39396.919900347823	0
0	34149	39405.413420910467	0
0	34154	39409.478834298454	0
0	34164	39412.429366763159	2.291612968011
0	34183	39430.310943957748	0
0	34197	39447.069731670643	0
0	34216	39458.832323256067	0
0	34241	39475.071219069168	11.805994868651
0	34258	39490.863834430921	23.9089404501
0	34265	39500.275396177579	10.501480629919
0	34283	39521.916238145884	1.846469931201
0	34288	39527.957358981337	7.096915564139
0	34290	39531.078173881946	7.644913266853
0	34296	39539.057116040693	0
0	34311	39565.991175862561	0
0	34323	39579.263085678263	0
0	34331	39593.492424676268	0
0	34335	39596.617226467108	1.400354888261
0	34341	39599.824506742014	0
0	34350	39604.535158922828	0.381091649072
0	34356	39606.534957964017	0
0	34367	39622.774363344904	15.862807430272
0	34383	39640.054275361297	0
0	34396	39653.491512538836	0
0	34411	39665.534731833389	0
0	34415	39666.312526414616	0.016888137544
0	34422	39678.622742257624	3.662848117947
0	34431	39684.372250622339	0
0	34435	39687.180928957998	1.244245831412
0	34471	39721.391727603727	0
0	34503	39748.504725508708	0
0	34511	39752.243514602021	0
0	34534	39774.273449888368	0
0	34543	39777.713597257866	0
0	34556	39788.870310057658	7.505646326466
0	34561	39791.312086950643	8.425472352472
0	34569	39804.759040894552	19.631503830242
0	34588	39821.825759569507	30.700700380049
0	34590	39822.579376456531	12.383621886599
0	34595	39827.030726547007	15.790279753888
0	34605	39835.474679898627	4.040004722747
0	34648	39871.536330038306	0
0	34683	39900.191202632734	0
0	34696	39920.852871764898	0
0	34711	39948.464626801785	0
0	34733	39977.83810009165	0
0	34748	39999.948253816047	0
0	34756	40013.910054694188	0
0	34776	40038.62206271598	0
0	34783	40053.221601118868	0
0	34803	40065.850381667026	0
0	34817	40088.504298771335	0
0	34836	40097.942683755147	0
0	34840	40100.776293259543	1.513604118773
0	34853	40110.096987753433	0
0	34876	40165.272190024357	0
0	34896	40185.59356438287	0
0	34933	40260.071409531752	0
0	34943	40276.980868740209	0
0	34947	40282.426609995519	3.187637375875
0	34953	40283.542195297238	0
0	34961	40285.731373401148	0
0	34967	40292.208365680326	0.092830048959
0	34975	40295.584171363668	2.565809418453
0	34980	40305.245363940555	9.818746652089
0	34993	40331.165778404543	0
0	34997	40331.857410609889	0.062080880744
0	35003	40343.956516458537	0
0	35032	40371.556465396462	0
0	35051	40392.456754069885	0
0	35057	40403.208952237657	2.474524966021
0	35063	40410.506682812729	0
0	35068	40422.850090310863	0
0	35101	40465.153394511796	0
0	35110	40470.686740729587	0.509974101124
0	35119	40477.865097303484	0
0	35128	40487.770876698662	0
0	35133	40495.587721289408	0
0	35138	40507.682925009683	0
0	35143	40517.712753214132	0
0	35148	40521.229419138664	0
0	35162	40528.54288864342	6.485476780864
0	35201	40578.292222147673	0
0	35219	40608.124016294214	0
0	35285	40668.006063017927	0
0	35294	40677.104691514748	1.52380476952
0	35309	40684.258972938087	0
0	35374	40740.407406148365	0
0	35402	40775.836666184955	0
0	35409	40779.804756137689	3.339643303057
0	35425	40792.998116225362	0
0	35438	40812.070100049237	8.332116098107
0	35443	40815.638418498083	1.180131613292
0	35461	40831.910153018092	12.903921768691
0	35471	40836.705954498868	13.605184873688
0	35505	40858.391228899622	0
0	35521	40867.510895777361	0
0	35535	40883.760651080997	5.741964315521
0	35540	40887.027026722173	6.302804991244
0	35546	40888.869062117237	0
0	35611	40976.405827557796	0
0	35639	40988.843283708084	0
0	35646	40997.412468649015	0
0	35653	41008.697534762877	0
0	35686	41044.29549904685	0
0	35701	41065.846165066502	0
0	35713	41082.602975963306	0
0	35728	41108.895977195354	0
0	35748	41134.898072674656	0
0	35771	41187.010480118192	0
0	35783	41199.155342421803	0
0	35794	41204.559754308553	0
0	35803	41222.634544744933	0
0	35808	41226.743678427004	0
0	35824	41238.565208627247	0
0	35833	41261.426920481075	0
0	35866	41313.190170521397	0
0	35881	41349.669995420179	0
0	35893	41374.45246197964	0
0	35953	41439.44565199238	0
0	35963	41454.124757208593	0
0	35968	41460.47189477692	0
0	35993	41485.492994708473	0
0	36003	41502.793116130046	0
0	36007	41506.546584207074	3.562851223019
0	36024	41537.211186149874	0
0	36068	41582.47227985336	0
0	36088	41604.685574077847	0
0	36118	41649.564731837373	0
0	36145	41671.495974145453	16.785116821074
0	36152	41678.276605125952	22.737629636429
0	36158	41688.029851951236	0
0	36191	41733.084379537146	0
0	36208	41761.629990443856	0
0	36212	41774.095224949703	1.053907353228
0	36226	41796.564296317778	0
0	36246	41818.519607651031	0
0	36258	41834.239358235947	0
0	36339	41940.865983951153	0
0	36368	41968.768498182561	0
0	36373	41975.978356802836	0
0	36381	41979.015058121025	0
0	36388	42007.796387355648	0
0	36392	42014.986248238482	1.759034002447
0	36418	42048.304049019364	0
0	36423	42050.533857587313	0
0	36433	42061.303157948168	0
0	36438	42062.341754059763	0
0	36448	42089.067789668121	0
0	36458	42105.577419645639	0
0	36506	42167.855608822583	0
0	36526	42192.952996258436	0
0	36533	42199.274213892665	0
0	36544	42219.544437981099	0
0	36561	42233.815651095505	8.932066651561
0	36563	42237.466213286291	9.083757379864
0	36567	42239.370266146323	9.272548656865
0	36581	42249.164275896625	0
0	36587	42258.712048810929	5.710553076931
0	36611	42279.366081812785	0
0	36623	42293.282000764929	0
0	36643	42330.272343956235	0
0	36647	42335.269743775553	3.538947887538
0	36663	42365.838713216776	0
0	36687	42383.530808699927	0
0	36699	42390.9182157349	0
0	36723	42425.50331737336	0
0	36754	42454.988920296425	0
0	36773	42474.797427377226	0
0	36788	42494.46661625019	19.427735998196
0	36790	42495.710791094056	20.079147791134
0	36795	42496.835691403543	11.440855570543
0	36806	42503.310595267562	0
0	36816	42508.683932769918	0
0	36847	42530.861338801224	0
0	36861	42546.345133897571	0
0	36870	42556.042043246955	7.813680071634
0	36875	42558.508408026424	6.352417127297
0	36883	42572.819284286887	0
0	36901	42582.146880191233	0
0	36913	42597.428068329019	0
0	36923	42604.924797960566	0
0	36952	42635.3004090991	0
0	36968	42650.438545549424	0
0	36976	42660.370476428079	0
0	36983	42665.117784405692	0
0	36996	42675.741208562291	0
0	37001	42677.871157071624	0
0	37020	42690.695253848905	4.124821496687
0	37022	42693.30925975421	2.620541316091
0	37037	42701.177319459398	1.488489419693
0	37042	42706.295945351707	4.57101394804
0	37048	42714.772572560238	0
0	37056	42726.761422552148	0
0	37068	42737.904725489105	0
0	37088	42759.920339628803	0
0	37104	42784.739534268847	0
0	37111	42789.639936372436	0
0	37123	42799.220091390744	0
0	37154	42843.778634766086	0
0	37173	42876.513039200762	0
0	37183	42896.804847112302	0
0	37188	42904.486242635835	0
0	37196	42911.394122745167	0
0	37211	42933.490613245814	0
0	37231	42964.684601781795	0
0	37243	42969.437924775273	4.419431765326
0	37258	42976.002021849135	0
0	37268	42994.003362311258	0
0	37298	43031.072158425236	0
0	37323	43055.169963361057	0
0	37334	43069.444225832221	0
0	37346	43086.72180249805	0
0	37368	43114.6327362617	0
0	37379	43121.639677517128	0
0	37388	43147.209927859128	0
0	37398	43158.114872360873	0
0	37412	43177.562006360653	0
0	37431	43185.523813793103	0
0	37443	43210.01646066694	0
0	37453	43232.394087721802	0
0	37462	43240.559415493378	1.144443502111
0	37468	43246.862086438868	0
0	37476	43256.272131394393	0
0	37491	43272.20096548436	0
0	37500	43284.746024773081	9.682678105508
0	37511	43296.827544259412	0
0	37515	43299.153219824558	0.851420615938
0	37529	43310.897480444332	0
0	37568	43357.828549740808	0
0	37593	43395.153046166804	0
0	37598	43417.909007147381	0
0	37611	43429.317662014965	0
0	37619	43432.397693402833	0
0	37646	43467.147427302192	0
0	37663	43476.651023640569	0
0	37676	43489.996451294443	0
0	37698	43510.128022965815	0.930143980695
0	37716	43530.177023238368	0
0	37736	43555.877062561149	0
0	37743	43563.540192818157	0
0	37753	43583.740276709021	0
0	37773	43626.889718923285	0
0	37783	43633.481943941518	0
0	37798	43661.277250564541	0
0	37818	43725.776400065376	0
0	37846	43745.700155046862	0
0	37865	43759.537828130012	0
0	37874	43768.798884356763	0
0	37891	43783.358984177305	0
0	37914	43810.892620557463	0
0	37930	43835.119114903433	16.18185730673
0	37936	43835.773706435284	0
0	37988	43916.308583939351	0
[...]
3	47630	55020.162185578608	1.594934039206
3	47638	55025.646873931663	3.846284309295
3	47640	55025.895131230938	2.447647311942
3	47645	55035.124944913642	2.281474914297
3	47650	55042.747919621204	1.967443241171
3	47658	55061.905487046422	18.152211974162
3	47669	55075.543356723054	9.428111341608
3	47671	55076.036095586961	17.29690256042
3	47673	55076.454431167791	8.982427062264
3	47678	55086.580327631634	12.42580990441
3	47680	55088.273272066121	4.213386279642
3	47688	55101.892134215361	9.148518547245
3	47693	55109.317704799978	13.03720983463
3	47695	55121.039145435481	11.942893810652
3	47706	55135.359930140681	13.175721319143
3	47714	55142.168632365398	4.711826666091
3	47716	55146.563887258175	5.65025663958
3	47718	55150.592951676051	17.02413296925
3	47723	55151.900023949222	17.9906665243
3	47728	55157.050692636888	5.24544989928
3	47736	55168.238328717756	14.558325873583
3	47738	55168.780885218685	5.476840609726
3	47740	55169.379813058857	5.769683112775
3	47748	55178.821612354049	7.122209269364
3	47753	55180.103182099449	7.167692448122
3	47755	55180.894738440813	1.421964838376
3	47760	55191.890037696952	1.072693074011
3	47765	55205.901463058341	9.425229243974
3	47770	55209.87100716867	3.32866431606
3	47775	55216.748020329554	4.298071423082
3	47786	55236.497950908821	0.499102289457
3	47791	55243.40084860915	21.900328997834
3	47793	55243.935057859029	1.192568476915
3	47795	55248.532187984135	25.588706295997
3	47806	55256.728273552435	5.037184619534
3	47808	55261.720356187846	5.144236485449
3	47810	55262.298821853773	9.710160778059
3	47815	55286.62093770704	12.330378365467
3	47820	55287.495905576664	0.731817964706
3	47828	55312.40700336414	8.130902669015
3	47833	55320.239164848971	1.244698874989
3	47841	55331.310142459726	0.371099298069
3	47846	55333.107618783094	1.100337497065
3	47848	55333.491347537031	29.220111776092
3	47856	55345.914247358521	15.225147589594
3	47858	55349.040512069557	10.33073380055
3	47860	55350.017838755403	5.153697534572
3	47865	55368.385028645106	0.125675330405
3	47870	55374.566669458011	3.888744978578
3	47875	55383.025687739671	3.328228440475
3	47886	55395.88523020354	10.025319139317
3	47888	55400.023638267695	4.172662855228
3	47896	55406.390310310306	12.068846847956
3	47898	55412.890687386269	10.72071458602
3	47906	55418.259532554236	0.591973528708
3	47911	55424.784756181746	22.740538547216
3	47913	55426.095147197953	6.648198621567
3	47918	55435.238674406188	20.44226477788
3	47920	55435.652834799144	4.844643942485
3	47928	55442.328112074267	1.489306851028
3	47933	55443.115287800215	0.744431925535
3	47935	55444.763757033042	9.014924132777
3	47940	55454.0998207543	3.191416904127
3	47945	55457.553395755698	1.624015253445
3	47950	55458.716454428718	0.991620670323
3	47955	55468.184193234318	3.423477768056
3	47969	55487.366304103813	5.675842482963
3	47971	55488.45541122861	5.523719416744
3	47973	55490.864789764819	9.794505900898
3	47978	55496.064087922127	9.14916184429
3	47980	55500.400104273973	7.81131081373
3	47985	55505.105642094316	1.953176714589
3	47993	55508.01519481815	2.497029359142
3	47995	55510.8231284279	3.890811701523
3	48000	55525.461866028111	8.377772875727
3	48008	55542.326728582977	1.009920031555
3	48016	55548.215340434277	4.833206984601
3	48018	55553.43555181143	5.328950308217
3	48020	55555.012425344902	13.154255737093
3	48025	55565.934686610491	3.425184354412
3	48030	55571.622831942593	3.745928047588
3	48038	55579.616830490094	6.485199096252
3	48040	55580.300019141064	3.002415529651
3	48045	55584.042369947064	1.872526934041
3	48053	55591.697653325153	4.051841671896
3	48061	55594.615964864208	5.651550817466
3	48066	55596.681506615704	3.433874265313
3	48071	55597.961320354221	6.053364891109
3	48073	55600.93368187415	4.4361070351
3	48078	55608.472919356859	3.902820471787
3	48086	55613.038245859183	0.688846623411
3	48094	55615.499970690925	1.294269222813
3	48099	55618.040570863283	20.708358692208
3	48101	55619.054806614679	8.61728535008
3	48106	55621.871347461748	1.729837146628
3	48108	55626.128379394305	11.959206372254
3	48110	55627.826296368154	10.598498340535
3	48118	55642.430608791723	2.700805595884
3	48126	55649.621639826195	1.386773073965
3	48131	55658.556799152348	16.333611425946
3	48136	55662.789614606852	11.199978100226
3	48138	55667.778058901201	25.286775716783
3	48143	55674.726325158692	13.266369505326
3	48148	55678.787888361756	7.593360567341
3	48150	55692.7102898413	15.767087711318
3	48158	55697.151658592702	0.12630067838
3	48160	55698.747019690729	4.238246003229
3	48165	55709.589578646775	7.478113022947
3	48170	55719.012263908124	2.526237253904
3	48175	55723.585230425743	1.074407153371
3	48183	55735.991047164485	12.051410977842
3	48188	55743.605169551135	11.778865960278
3	48190	55753.019872783639	9.850051075974
3	48198	55759.605853464011	0.565967178934
3	48200	55770.007704819569	10.865735216044
3	48211	55797.008153259669	6.265008900076
3	48216	55798.223783346792	26.293468106525
3	48218	55799.964407806268	4.266399466881
3	48223	55807.756246329684	1.731757372164
3	48228	55809.132768807706	11.159462876845
3	48248	55827.027858126061	18.299430999784
3	48250	55828.157937094461	2.126878286614
3	48252	55829.345684444445	11.778655853501
3	48254	55830.311065254169	16.899580995759
3	48265	55834.663666067971	11.675433989125
3	48270	55836.044363663094	0.21854176614
3	48275	55838.224502674507	16.698229284367
3	48277	55840.76026631242	13.888457621521
3	48279	55844.759826450746	12.586220789609
3	48281	55845.10628351601	11.492286428609
3	48289	55847.572938303721	16.095079845887
3	48291	55847.789922214431	9.760192880335
3	48296	55849.212099147549	1.821824198868
3	48304	55852.651899452586	7.307882840428
3	48306	55854.118726252436	6.041575988217
3	48311	55857.870217173558	5.767998428571
3	48313	55858.828228908634	4.358695710619
3	48321	55870.988646929224	10.745307634885
3	48323	55872.750361946984	12.107016140931
3	48325	55873.053080939891	20.473828474391
3	48339	55891.17839407201	9.291728828168
3	48341	55892.009796468	8.824276371632
3	48343	55892.652032282819	1.806844722747
3	48345	55893.643263819396	4.409545038585
3	48353	55906.796013234887	2.550158132927
3	48358	55914.118093131183	7.441802345102
3	48360	55915.298142690001	2.967807107918
3	48368	55927.938392222434	3.172769021567
3	48373	55936.051952973213	3.429010751288
3	48381	55944.777519381355	4.69897088825
3	48386	55946.651914161666	18.961488257938
3	48388	55947.286485308323	9.989541867267
3	48399	55954.138258907975	7.829083951541
3	48404	55963.494992273527	10.637907193733
3	48406	55967.058648942787	18.802265814891
3	48411	55981.161323807126	29.553678006393
3	48413	55981.219357061938	22.87162859346
3	48415	55983.922122096888	6.859931252269
3	48426	55997.65641302927	11.179820811787
3	48434	56006.464319351911	8.380765674657
3	48436	56006.810788906282	4.653759277488
3	48438	56007.012172157082	13.371490176596
3	48440	56012.442005217543	16.608486340907
3	48445	56014.126073416485	0.605977453773
3	48450	56026.379547887302	6.466611732995
3	48455	56030.79832348498	0.989129608525
3	48463	56036.66326042978	3.556453306824
3	48465	56040.115418486447	3.968094323852
3	48473	56045.207299489371	3.502311957274
3	48478	56056.72479389674	4.38738131345
3	48480	56058.862126164035	17.880604314494
3	48491	56078.222921468191	8.122956473215
3	48493	56078.348399568322	14.602496090196
3	48495	56078.465552518923	13.173626839886
3	48506	56090.366394549208	7.467724397817
3	48508	56091.18870251749	2.322634041978
3	48513	56092.734976047944	4.554699522292
3	48515	56098.062082447353	6.034287107603
3	48520	56100.148661716482	0.703375584167
3	48534	56123.0707213189	16.722671305788
3	48536	56124.644456538536	6.930934221791
3	48538	56125.746120185028	3.140878937892
3	48540	56126.782849784631	7.996803546574
3	48545	56127.752516262792	0.212641029398
3	48550	56133.633701965302	0.721028435325
3	48555	56167.833177109251	1.1654013915
3	48566	56182.405399337306	3.118533504181
3	48571	56187.802733114997	10.238734885764
3	48576	56192.248964598885	5.390197262682
3	48578	56192.551130491329	12.229837927173
3	48583	56194.762662460715	1.627018111993
3	48585	56197.047271692193	6.172795513995
3	48590	56209.907792578574	1.670223896325
3	48595	56211.421854132884	0.492815601009
3	48600	56219.83173161647	0.086665891581
3	48605	56222.335270658441	1.388937830337
3	48610	56225.411681857065	0.625526452128
3	48615	56232.188856179562	0.540195876034
3	48623	56238.888116530571	4.097162154323
3	48634	56254.19218633993	18.548636866996
3	48639	56255.730720603014	14.963071018544
3	48641	56257.460154524678	6.293534226438
3	48649	56268.214476389226	24.784856390697
3	48651	56268.341695497764	0.838418629368
3	48656	56273.311079600743	19.03249705685
3	48661	56279.362807813766	18.929338006484
3	48663	56282.792975498231	11.699051073384
3	48668	56289.186799219635	12.40128671291
3	48670	56298.990853323893	10.836345711965
3	48675	56306.904744213861	1.905996546043
3	48680	56307.805285223266	0.481799900656
3	48685	56314.045519632865	1.670679953843
3	48693	56327.087254627386	3.785614490043
3	48695	56327.904266438818	4.598624757128
3	48706	56335.883346485593	4.843686809421
3	48708	56336.400118604304	1.511856622236
3	48713	56348.575470061349	13.340190600554
3	48715	56351.153153504969	12.651384752145
3	48726	56366.623735228012	0.440172702019
3	48728	56373.246440701712	10.584046048202
3	48730	56377.103892456307	19.212681966746
3	48735	56381.041530355356	0.167994012541
3	48743	56390.586209991696	3.232329991845
3	48745	56394.407229794818	9.720700391034
3	48753	56401.526062278973	3.492873895783
3	48758	56402.465844612564	0.608133196655
3	48760	56404.628842302766	5.783590548428
3	48768	56420.154863233592	1.476353738755
3	48773	56422.156112481052	0.16013838037
3	48778	56428.815688491434	2.155765926788
3	48786	56432.539116111972	15.705218560046
3	48788	56444.7959723464	15.435908114509
3	48790	56445.169857859132	15.360286283517
3	48798	56454.783282543471	8.253970524433
3	48800	56459.962025521216	6.748074783862
3	48805	56465.304220324731	4.97506118977
3	48813	56470.381554093194	3.836587822723
3	48815	56474.796882694774	6.616598210926
3	48823	56482.140393393184	2.734919380652
3	48834	56488.339161147857	2.513441558716
3	48836	56493.515653104362	15.939942993217
3	48847	56507.931434920019	4.422589746057
3	48849	56509.499793363519	5.438855584777
3	48851	56516.154838732504	32.535626929074
3	48856	56525.007915014452	41.383573374377
3	48858	56526.03914573312	25.57237086706
3	48866	56529.591816808462	0.828141541108
3	48868	56530.558447020285	9.642317893849
3	48873	56534.164268652296	6.845295368301
3	48875	56535.424336085394	1.483415631453
3	48883	56544.878751944912	0.564181891847
3	48888	56548.895925686207	4.050692754284
3	48893	56552.201142447715	6.582722698646
3	48895	56555.181862354782	3.063863424432
3	48906	56581.946666958103	8.819946986079
3	48908	56588.469733711367	12.059719251454
3	48910	56588.644430679641	6.981225087511
3	48924	56591.862003333159	2.229570949529
3	48929	56596.816355672214	6.072304529936
3	48931	56597.256551208229	6.218367411768
3	48933	56599.466267373981	8.859202592912
3	48941	56609.999311177761	18.017338164358
3	48946	56614.183120095177	12.049945544045
3	48948	56615.289058668334	1.478706688699
3	48953	56622.140037589056	17.701733688945
3	48967	56634.975026904603	2.172007141158
3	48972	56639.331880681285	17.597967142454
3	48974	56639.444189366995	12.226524197044
3	48979	56645.799527707447	16.475044999973
3	48984	56654.962338114507	3.120891532176
3	48986	56654.98146106071	27.251054927177
3	48988	56656.828746405988	18.936106142504
3	48990	56663.943167055036	21.800501557174
3	49001	56676.51962655113	9.199234878184
3	49006	56682.240479951713	14.780410311392
3	49008	56684.585079020359	16.276753034503
3	49013	56691.863971539734	14.448799357735
3	49015	56692.696163458873	6.009336883096
3	49020	56703.935764224785	2.564183417381
3	49025	56712.365902338247	3.54668713814
3	49045	56728.194289204661	9.788395069339
3	49050	56730.104533292453	2.355209327292
3	49052	56730.88541787913	9.133684218189
3	49054	56735.002003544672	11.903973439589
3	49056	56736.449575963592	9.493109199881
3	49058	56751.608020420829	23.803970508754
3	49060	56753.165969575701	24.168637481569
3	49068	56758.169872295248	0.089217745447
3	49076	56768.166100492569	1.427007265518
3	49081	56772.962322516312	0.477775521049
3	49083	56783.25323746519	29.59339395847
3	49088	56783.74187842652	0.48525714772
3	49090	56791.441504205295	23.93547844065
3	49104	56805.800809233971	10.624825071667
3	49106	56807.561519644629	2.45188941979
3	49108	56808.797423903155	9.418723670848
3	49110	56810.516825398498	8.264506718406
3	49118	56837.525735254678	6.758604258116
3	49126	56842.158957153902	3.859781815026
3	49128	56843.077280146113	9.111446225985
3	49130	56850.43254170002	11.750660432338
3	49135	56855.503130059635	2.746058805261
3	49140	56867.538995025174	6.808345250191
3	49145	56878.028553207301	4.640815867063
3	49150	56882.57597707619	1.682524212575
3	49155	56899.473630105131	2.81744381405
3	49160	56901.819881079114	0.235359792524
3	49168	56905.103137275736	2.878451748796
3	49173	56907.471748551017	2.169316139785
3	49175	56908.432742234669	3.524208039392
3	49180	56926.161867314568	12.958900044166
3	49185	56931.825060075926	2.817090900632
3	49196	56950.057773022337	10.987072648563
3	49201	56954.816913439436	9.6655352505
3	49203	56955.720044336942	13.742798563131
3	49211	56961.587781399084	0.651311737103
3	49213	56963.260841472148	11.13803728031
3	49215	56966.458967065042	5.06840360132
3	49220	56976.105235368669	8.459280356224
3	49225	56977.159228098063	0.034998486178
3	49233	56983.988918945877	4.98942150669
3	49238	56992.27525942064	11.696906794813
3	49240	56993.557494694937	6.98603632048
3	49245	57026.673099163416	3.300129533727
3	49250	57031.463956446091	2.854927912667
3	49258	57045.592715372433	3.836861515155
3	49260	57046.085179970372	1.550584101893
3	49271	57052.60483330727	1.299914530451
3	49273	57056.207469290784	8.665886786811
3	49281	57063.171608274862	13.374983773965
3	49283	57063.398894713252	3.438712239824
3	49297	57086.789521879689	24.333696242851
3	49299	57089.16495317391	15.813595009875
3	49301	57089.318266944378	17.761117565573
3	49306	57093.723362129281	19.249779127837
3	49311	57097.815771990801	4.558692231365
3	49313	57097.85614181756	16.636853513112
3	49315	57099.328101489247	2.621555197451
3	49320	57105.358896919921	1.81067762838
3	49325	57119.032001854379	2.339566474472
3	49330	57121.412856191942	1.408059374667
3	49335	57125.748502721999	0.448835708085
3	49343	57140.577393540736	2.774375075858
3	49345	57141.948177547609	6.155673776332
3	49350	57146.312379205577	4.209921380479
3	49355	57149.441611236594	1.584685015536
3	49363	57154.929257467761	3.057160419658
3	49374	57169.797302186751	0.74294092024
3	49376	57174.569742894904	22.62178492519
3	49378	57176.686543324778	19.614696296572
3	49383	57179.073682238718	21.185308960307
3	49385	57179.162932767105	0.452545775136
3	49393	57181.834913579549	1.189093091515
3	49398	57182.985883080162	1.658586734961
3	49400	57183.832171163504	1.782250421913
3	49411	57199.403350431566	5.447014573726
3	49413	57202.596769200359	5.75857233875
3	49415	57205.634598003496	15.469657787741
3	49420	57221.724029113411	3.172864013037
3	49425	57225.414536884151	2.832690557419
3	49430	57230.222045851054	2.12442043129
3	49438	57241.009273303873	1.561286229614
3	49446	57246.213943341297	0.92613621319
3	49448	57251.435300588884	16.834325635027
3	49450	57252.144289572815	8.300686965593
3	49455	57257.750556783591	1.99550930455
3	49463	57258.956959289305	1.042922792419
3	49471	57267.974194907223	10.125910568256
3	49476	57269.730040958905	2.470678268161
3	49478	57271.700237320978	7.183094788869
3	49483	57275.345028309701	7.238483998527
3	49488	57283.168607943568	8.241807178028
3	49490	57284.767218669628	6.594617996906
3	49495	57287.56509779005	1.397119108273
3	49503	57299.190642876779	0.508364810004
3	49505	57303.416361820528	5.601237561341
3	49510	57308.674848551196	0.262519287475
3	49515	57311.735472766107	1.007619738783
3	49520	57323.145552822774	9.935274263318
3	49525	57326.343093548506	1.428519887217
3	49536	57353.020446097896	15.516190949188
3	49538	57353.874497139112	14.722682278155
3	49552	57360.271759103293	8.602479678778
3	49557	57362.157758914336	6.802214639027
3	49565	57370.816429765829	2.328178382783
3	49567	57374.58952645296	19.581956630196
3	49569	57375.572173759847	20.346628070529
3	49571	57378.47021434541	21.903961183904
3	49576	57386.207065370831	24.482323460711
3	49584	57389.139128090627	19.893568952248
3	49586	57389.828140479307	1.519450263135
3	49591	57394.593189794498	15.613190060752
3	49593	57396.288841566793	8.669244530523
3	49595	57398.071017126289	4.926739828683
3	49606	57406.448169281741	6.206115147569
3	49611	57407.625217308982	6.635019917099
3	49616	57407.833266798171	1.050918824377
3	49624	57422.989569615089	14.592887312612
3	49626	57426.069777244988	11.444425269439
3	49631	57430.534934860083	0.754439363809
3	49636	57438.34246425835	2.254656378634
3	49647	57442.147303983043	2.606382544589
3	49649	57446.417399268048	41.927820703491
3	49651	57446.838256050202	39.161016410517
3	49656	57448.148992444728	9.292107616484
3	49658	57449.131525308783	9.551535106336
3	49666	57455.572977893308	1.606626257727
3	49668	57456.350781380222	9.091402258086
3	49673	57458.489263605489	7.190982844883
3	49675	57459.661326227948	2.0522426776
3	49683	57466.289124361917	4.388997610561
3	49685	57469.561671927256	5.483698341386
3	49690	57473.569322657122	0.170310353714
3	49695	57480.076398720318	6.340403794428
3	49700	57481.754118624135	1.662453936692
3	49705	57486.930659070798	3.648317822755
3	49716	57491.35539326712	4.364745594062
3	49721	57492.838798832272	1.712253209785
3	49726	57499.35564128386	2.867403707734
3	49734	57504.037642095041	2.709317521397
3	49739	57509.52547526785	19.1332096016
3	49741	57509.686212905849	5.219458437285
3	49743	57509.784706574291	17.693987815868
3	49748	57510.213338521742	7.937313697812
3	49753	57516.381372065684	2.054723929362
3	49764	57524.294571690921	0.586681895471
3	49766	57524.807431085897	14.844164720667
3	49768	57524.955727102989	1.085612810771
3	49770	57526.815578890091	7.659159812845
3	49781	57530.23185341522	3.015474321842
3	49783	57531.202102725295	3.768251925314
3	49788	57531.960025889879	3.913617340701
3	49799	57538.395207259762	5.419030572146
3	49801	57538.627915442454	7.31956185135
3	49806	57545.474667430074	11.782689259491
3	49808	57545.865414484069	5.820540590415
3	49813	57547.859688628969	1.060079320026
3	49821	57549.505991060641	13.202339431015
3	49823	57549.880870645334	1.733536269137
3	49831	57554.968715185773	1.296875784927
3	49839	57560.065642143342	4.004497146672
3	49841	57562.985753263947	6.50633538969
3	49843	57573.158706609136	24.456117732265
3	49845	57574.485774596382	23.907845630416
3	49853	57581.36372310121	4.899977749427
3	49858	57591.80908730872	11.399851654331
3	49863	57608.672215616747	21.588047740582
3	49865	57608.946295292219	1.468732156465
3	49873	57614.486697534294	4.446627914382
3	49878	57620.517553025688	9.91078152605
3	49880	57628.187233906147	8.513226612701
3	49894	57644.448923416468	4.816770349448
3	49896	57644.741682785775	8.222654155439
3	49898	57648.800604184043	8.654707934112
3	49903	57654.264651440903	13.780120796466
3	49905	57656.997554746693	4.517966648334
3	49910	57666.260848042231	3.879202933815
3	49915	57678.226803603937	4.423019630858
3	49926	57690.120771551561	2.23377934616
3	49928	57694.321321331604	4.405382456994
3	49936	57699.941185700638	4.306925462738
3	49941	57709.655212239315	5.282823546911
3	49943	57712.769073943732	22.723034243795
3	49945	57715.111575911938	16.78706031646
3	49950	57724.123230247486	0.155887769205
3	49955	57727.512897361712	0.973572422517
3	49960	57734.477550165879	3.3147321176
3	49965	57737.377064304033	0.804571029564
3	49970	57741.357795495851	0.794429653535
3	49975	57745.215887398355	1.249272327406
3	49983	57760.212944048886	1.054290801586
3	49985	57765.089910188364	6.136440048549
3	49990	57771.140309731934	0.012210575645
3	49995	57775.178849435747	0.600962700171
3	50001	57789.441327601331	3.174423946691
