version 2
run Testbench_1-607-20170516-19:19:14-55876
attr configname Testbench_1
attr datetime 20170516-19:19:14
attr experiment Testbench_1
attr inifile omnetpp.ini
attr iterationvars $0=175
attr iterationvars2 "$0=175, $repetition=7"
attr measurement $0=175
attr network Toll_road
attr processid 55876
attr repetition 7
attr replication #7
attr resultdir results
attr runnumber 607
attr seedset 607
param **.numBooths 3
param **.queue[*].serviceTime exponential(5.11s)
param **.source.interArrivalTime exponential(5.854s)
param **.source.numJobs 1000

vector 0  Toll_road.queue[0]  jobsProcessed:vector  ETV
attr interpolationmode  none
attr source  queueingTime
attr title  "jobs processed, vector"
vector 1  Toll_road.sink  lifeTime:vector  ETV
attr interpolationmode  none
attr title  "lifetime of arrived jobs, vector"
attr unit  s
0	3	15.096997458143	0
0	10	20.30525895966	1.682626170964
0	15	21.433160978509	2.168618896494
0	17	28.646555868469	7.706216103367
0	23	36.256784443017	0
0	28	54.6705921349	0
0	33	63.420410829308	0
0	46	84.247364266936	18.8825844058
0	48	84.354955933676	13.952889008153
0	53	96.108279518577	19.017717457411
0	55	97.100813829888	16.991719446488
0	60	100.727181981792	8.167134345945
0	62	101.716192021001	1.456973921035
0	68	104.968957395929	0
0	73	112.667285553085	0
0	77	114.158695090768	0.72415654887
0	83	118.772866688713	0
0	88	123.517247549387	0
0	93	131.721851243876	0
0	98	142.285912915573	0
0	103	147.317091802137	0
0	108	148.695268747723	0
0	112	150.390833725097	1.286660465953
0	123	169.225621776415	17.053583969485
0	128	173.67969392919	14.784634155619
0	133	178.940612372331	17.076673365262
0	135	179.264881941187	9.560702624008
0	143	182.875558769991	5.678566446546
0	154	187.421439610579	6.048905353312
0	159	194.812983480522	12.388479212446
0	167	196.305757935958	10.663051870895
0	181	208.13272133815	22.385274693712
0	186	209.289866645029	23.317325206491
0	197	212.388385852142	20.199446725829
0	205	218.727120432915	23.111297086508
0	207	222.332854494462	26.532143211978
0	209	223.21799046465	26.453048575525
0	211	227.15633271962	29.966157614664
0	213	229.879225681277	27.956843467824
0	224	234.638102034694	27.007260768294
0	226	234.681595333176	25.7784179724
0	228	234.81661706676	25.157607172179
0	230	235.499384276785	25.004354946208
0	232	237.431497726009	26.42834659305
0	243	250.365927957473	32.967664566339
0	245	253.262552849347	35.475620540331
0	247	254.043779730688	23.954987077728
0	249	255.02411336859	23.80490061906
0	251	255.92009449379	24.208678335565
0	256	261.202240702496	21.408722601974
0	258	261.543445830843	14.110085418526
0	260	265.212368504102	17.337745694045
0	271	271.823559240734	14.889653073103
0	276	275.514033887819	10.28853418023
0	278	281.129073147365	13.737983190153
0	280	281.417741449711	13.706381889012
0	288	288.340695103295	14.662886385663
0	290	289.054621924593	3.956691702407
0	292	289.056302564955	1.999386491634
0	298	290.836521063583	0
0	317	312.930385720426	15.937802138739
0	319	316.024005739796	17.926050604089
0	333	333.523864097922	34.157204629323
0	341	340.351603693588	36.48083078697
0	343	343.716630120563	37.7181330665
0	348	354.953533330002	44.645161373212
0	356	366.76586903897	49.637560224933
0	358	368.45881444725	50.037170709803
0	360	369.478092779599	44.223391733475
0	368	375.108454137545	44.31967569364
0	370	377.496011790625	43.75279017845
0	372	377.59910705272	38.947295049661
0	380	380.079105476297	30.710910063724
0	388	385.048711247323	20.837112205593
0	393	389.027425374901	23.560709860367
0	395	393.635825922193	23.90703384605
0	397	394.119324464737	20.781198572815
0	402	399.883759296895	21.748660124547
0	404	400.743014752652	20.854073017406
0	409	409.101448801865	27.748795529267
0	411	412.158643873939	29.991793631301
0	413	426.960574898186	38.519078815569
0	418	428.102963921154	32.205154901348
0	420	428.358851810928	24.476441666809
0	425	430.597928839409	3.03595380449
0	427	431.392190753233	0.929112940703
0	433	434.732473717193	0
0	437	435.017938625606	0.150923862517
0	454	450.677724682436	10.242803319247
0	462	452.580636657168	11.781061682773
0	467	453.534144767432	8.52991000632
0	469	454.236754093732	9.028398827257
0	471	455.100790541765	5.820339989413
0	473	461.859966785051	10.140859682913
0	475	463.23254145061	10.913978793168
0	477	463.739547818541	10.369001568002
0	482	470.390115856771	1.746587540103
0	488	471.389192611591	0
0	493	488.284838875536	0
0	498	502.497091809147	0
0	503	514.576451048578	0
0	508	523.23496955536	0
0	513	528.270106705541	0
0	518	533.937603544144	0
0	525	537.546510623715	1.61958524258
0	527	539.064620119437	2.327543469112
0	533	545.517921640569	0
0	538	552.041857668734	0
0	542	554.631511206415	1.615504994608
0	548	563.051589094624	0
0	553	568.730778230494	0
0	560	573.639246331475	2.401437944979
0	565	575.877573420521	3.405094938179
0	567	578.500109928279	4.105241028552
0	572	582.953628434033	0.487549002514
0	580	594.977151501439	3.148647473986
0	582	595.995923774552	4.034741430449
0	588	606.579481076152	0
0	593	614.088092612563	0
0	598	633.049230334967	0
0	611	638.308259755614	3.964546983787
0	616	642.82942294534	7.915554568597
0	621	646.754536867257	11.699330073248
0	623	656.031981554236	18.365190119899
0	625	662.147828947281	23.074511182194
0	627	662.651274112573	19.115682437
0	633	676.0762551495	0
0	637	678.965292815345	0.021254189849
0	642	689.59684822724	8.785551826164
0	648	692.718728186556	0
0	653	697.224866243119	0
0	658	712.684351895967	0
0	663	720.691695572912	0
0	668	728.631052359238	0
0	672	732.562370264078	0.045830945498
0	678	735.733779905229	0
0	682	738.146712118437	0.047863170462
0	693	750.602681657279	4.139284880235
0	695	753.284354511607	3.692969372849
0	712	777.08274950473	27.085973737145
0	717	778.280084019598	10.373848257318
0	725	779.778373108628	10.525999552739
0	730	783.67310381081	10.942178586171
0	738	793.26316172598	19.923925967031
0	743	794.776280437896	18.824066754875
0	748	800.684857766598	23.025674422234
0	750	803.499532033297	24.89155119238
0	752	806.912836735107	27.358299925483
0	754	807.050341289178	24.526072025591
0	762	810.46860401959	19.520532247417
0	764	812.590136755883	19.992769527331
0	769	824.521734239333	30.267380034247
0	774	829.602639885858	30.541603935467
0	779	842.869621956219	33.152593881129
0	787	845.824168679129	35.947639554091
0	789	848.291750076611	29.653429013529
0	791	848.806843823657	22.04629688922
0	802	875.204255017173	45.169899858826
0	804	875.599628422081	31.709822261329
0	815	880.256735322512	36.014348899519
0	823	889.496066302209	37.850311579382
0	828	894.326023118943	34.854358785453
0	830	894.861618643652	26.582434037741
0	832	895.577139828647	17.166273002528
0	840	900.225367961498	20.655653914604
0	842	903.05721490857	23.298102462622
0	844	907.52945595128	24.881560816388
0	849	914.801144288813	30.319150696592
0	851	920.049000366052	26.783405076813
0	853	923.109718617527	27.512649883634
0	858	925.283368804444	29.405893374001
0	863	930.555960322531	16.273783226811
0	869	940.119839555618	15.45927342802
0	871	944.45076883683	17.804036974715
0	873	946.916367613911	14.438200362131
1	11	20.30525895966	5.208261501517
1	16	21.433160978509	2.810528189813
1	18	28.646555868469	9.382013786454
1	20	28.745637443578	7.805297678476
1	25	44.105061412637	7.84827696962
1	30	55.165583865379	0.494991730479
1	47	84.247364266936	20.826953437628
1	49	84.354955933676	18.99017607254
1	54	96.108279518577	25.706212593054
1	56	97.100813829888	20.010251768722
1	61	100.727181981792	20.618087598392
1	63	101.716192021001	9.156144385154
1	65	104.101784980722	3.842566880756
1	70	105.769014107105	0.800056711176
1	78	114.158695090768	1.491409537683
1	80	115.298225758077	1.863687216179
1	85	123.008918110023	4.23605142131
1	90	127.582652943096	4.065405393709
1	95	141.518739854981	9.796888611105
1	100	142.798856882431	0.512943966858
1	105	148.135717067602	0.818625265465
1	113	150.390833725097	1.695564977374
1	124	169.225621776415	20.121448517271
1	129	173.67969392919	21.50765612226
1	134	178.940612372331	20.04555259876
1	136	179.264881941187	17.400942934118
1	144	182.875558769991	13.171379452812
1	155	187.421439610579	10.224447287134
1	160	194.812983480522	13.440449223255
1	168	196.305757935958	13.881253667882
1	182	208.13272133815	22.490015273087
1	187	209.289866645029	23.542420000591
1	198	212.388385852142	26.415844413604
1	206	218.727120432915	26.538181306602
1	208	222.332854494462	26.717031148055
1	210	223.21799046465	27.417279182166
1	212	227.15633271962	30.391390830495
1	214	229.879225681277	32.689050576321
1	225	234.638102034694	32.715719821241
1	227	234.681595333176	27.050754066776
1	229	234.81661706676	25.913439705984
1	231	235.499384276785	25.840374382204
1	233	237.431497726009	26.936468395432
1	244	250.365927957473	39.362776824514
1	246	253.262552849347	35.864289458213
1	248	254.043779730688	36.256847421672
1	250	255.02411336859	24.93532071563
1	252	255.92009449379	24.70088174426
1	257	261.202240702496	29.490824544271
1	259	261.543445830843	21.749927730321
1	261	265.212368504102	17.779008091785
1	272	271.823559240734	23.948936430677
1	277	275.514033887819	18.580127720188
1	279	281.129073147365	15.903573439776
1	281	281.417741449711	14.026651492499
1	289	288.340695103295	20.629335542596
1	291	289.054621924593	15.376813206961
1	293	289.056302564955	3.958372342769
1	295	290.619420103224	3.562504029903
1	318	312.930385720426	22.093864656843
1	320	316.024005739796	19.031422158109
1	334	333.523864097922	35.425908962215
1	342	340.351603693588	40.984944224989
1	344	343.716630120563	39.845857213945
1	349	354.953533330002	48.955036275939
1	357	366.76586903897	56.45749708218
1	359	368.45881444725	51.330505633213
1	361	369.478092779599	51.056449042152
1	369	375.108454137545	49.853753091421
1	371	377.496011790625	46.70723334672
1	373	377.59910705272	43.855885440545
1	381	380.079105476297	41.427293473238
1	389	385.048711247323	35.68051583475
1	394	389.027425374901	24.815826333171
1	396	393.635825922193	28.169110407659
1	398	394.119324464737	24.390532388594
1	403	399.883759296895	26.545633404973
1	405	400.743014752652	22.607915580304
1	410	409.101448801865	29.212507066619
1	412	412.158643873939	30.805990601341
1	414	426.960574898186	44.793724655548
1	419	428.102963921154	39.661467838537
1	421	428.358851810928	32.461042791122
1	426	430.597928839409	26.71551869529
1	428	431.392190753233	3.830215718314
1	430	431.696215525896	1.233137713366
1	438	435.017938625606	0.285464908413
1	455	450.677724682436	15.810709919347
1	463	452.580636657168	12.145715293979
1	468	453.534144767432	12.734569793037
1	470	454.236754093732	9.23251933262
1	472	455.100790541765	9.89243527529
1	474	461.859966785051	12.579516232699
1	476	463.23254145061	11.513434348472
1	478	463.739547818541	11.420985161099
1	483	470.390115856771	17.019569606232
1	485	470.908445660347	2.264917343679
1	490	474.414018027415	3.024825415824
1	495	496.998114524951	8.713275649415
1	500	505.316268133162	2.819176324015
1	505	522.449473578547	7.873022529969
1	510	527.21905548789	3.98408593253
1	515	530.863356454326	2.593249748785
1	526	537.546510623715	3.608907079571
1	528	539.064620119437	3.137694738302
1	530	540.588058270497	3.850981620172
1	535	545.936681175136	0.418759534567
1	543	554.631511206415	2.589653537681
1	545	559.374955709879	6.358949498072
1	550	567.023086935163	3.971497840539
1	561	573.639246331475	4.908468100981
1	566	575.877573420521	4.639765034025
1	568	578.500109928279	6.027631445937
1	573	582.953628434033	8.558759534306
1	581	594.977151501439	12.51107206992
1	583	595.995923774552	4.167419747099
1	585	606.445348530201	14.484166186098
1	590	609.99716720479	3.417686128638
1	595	616.166625203597	2.078532591034
1	612	638.308259755614	5.259029420647
1	617	642.82942294534	8.485710173513
1	622	646.754536867257	11.840668490514
1	624	656.031981554236	20.976774760227
1	626	662.147828947281	24.481037512944
1	628	662.651274112573	23.577956347486
1	630	662.950266182815	19.414674507242
1	638	678.965292815345	2.889037665845
1	643	689.59684822724	10.652809601744
1	645	690.837377950041	10.026081548965
1	650	693.746951891898	1.028223705342
1	655	697.967508378847	0.742642135728
1	660	713.401163401704	0.716811505737
1	665	721.72555549097	1.033859918058
1	673	732.562370264078	3.93131790484
1	675	735.257854040298	2.741314721718
1	683	738.146712118437	2.412932213208
1	694	750.602681657279	12.503832709304
1	696	753.284354511607	6.820957734563
1	713	777.08274950473	27.491364365972
1	718	778.280084019598	28.283308252013
1	726	779.778373108628	11.872137346348
1	731	783.67310381081	14.420730254921
1	739	793.26316172598	20.532236501341
1	744	794.776280437896	21.437044678947
1	749	800.684857766598	24.732644083577
1	751	803.499532033297	25.840348688933
1	753	806.912836735107	28.30485589419
1	755	807.050341289178	27.495804479554
1	763	810.46860401959	27.944334756003
1	765	812.590136755883	21.64206498371
1	770	824.521734239333	31.924367010781
1	775	829.602639885858	35.348285680772
1	780	842.869621956219	43.808586005828
1	788	845.824168679129	36.107140604039
1	790	848.291750076611	38.415220951573
1	792	848.806843823657	30.168522760575
1	803	875.204255017173	48.443708082736
1	805	875.599628422081	45.565273263734
1	816	880.256735322512	36.36692916176
1	824	889.496066302209	45.253679879216
1	829	894.326023118943	42.680268396116
1	831	894.861618643652	35.389954310162
1	833	895.577139828647	27.297955222736
1	841	900.225367961498	21.814501135379
1	843	903.05721490857	23.487500861676
1	845	907.52945595128	27.770343505332
1	850	914.801144288813	32.153249153921
1	852	920.049000366052	35.567006773831
1	854	923.109718617527	29.844123328288
1	859	925.283368804444	29.686300070551
1	864	930.555960322531	34.678484892088
1	870	940.119839555618	25.837662459898
1	872	944.45076883683	19.790202709232
1	874	946.916367613911	20.269635751796
1	876	954.697596043366	22.219428791586
