version 2
run Testbench_1-477-20170516-19:18:46-53560
attr configname Testbench_1
attr datetime 20170516-19:18:46
attr experiment Testbench_1
attr inifile omnetpp.ini
attr iterationvars $0=125
attr iterationvars2 "$0=125, $repetition=77"
attr measurement $0=125
attr network Toll_road
attr processid 53560
attr repetition 77
attr replication #77
attr resultdir results
attr runnumber 477
attr seedset 477
param **.numBooths 3
param **.queue[*].serviceTime exponential(5.11s)
param **.source.interArrivalTime exponential(5.854s)
param **.source.numJobs 1000

vector 0  Toll_road.queue[0]  jobsProcessed:vector  ETV
attr interpolationmode  none
attr source  queueingTime
attr title  "jobs processed, vector"
vector 1  Toll_road.sink  lifeTime:vector  ETV
attr interpolationmode  none
attr title  "lifetime of arrived jobs, vector"
attr unit  s
0	3	1.398720799718	0
0	8	6.710133187237	0
0	13	9.903321468669	0
0	23	22.716864465676	11.04572573036
0	28	27.371153041265	14.684571654516
0	36	37.665328990485	16.051595351713
0	44	44.411707343355	18.244596513116
0	52	58.836468809785	27.21676731956
0	57	62.130157994451	28.875261734158
0	65	68.665573421768	30.347197744554
0	82	86.787008189567	46.807328300671
0	87	97.086291221554	49.771626120002
0	92	100.807804335411	49.120005788434
0	94	102.428240494602	41.436340924234
0	96	103.839111692219	38.642387259827
0	98	111.467666205336	43.46321983161
0	100	115.894297049301	43.211184100581
0	105	127.37746934045	50.433840624407
0	107	127.543684141154	46.452439816829
0	109	129.467352603495	47.783179345858
0	111	132.47248567676	49.383068394178
0	113	136.114580210144	43.309593278583
0	118	141.160152552916	42.741137839573
0	120	143.00425687526	18.136354073018
0	134	155.044641673267	18.568342615929
0	136	159.433931182072	12.747609001012
0	138	173.322591753678	22.135117215992
0	143	181.325819269685	27.959061864146
0	148	188.234737077344	33.522920747647
0	162	214.054945557174	38.057875140886
0	167	221.866415420524	38.937885698766
0	169	225.196578361085	34.422718869498
0	171	226.968599350141	23.03623985118
0	173	227.131924161312	16.783274591618
0	175	227.67311536532	16.206169421792
0	183	237.272745923716	18.266928811899
0	188	244.772862572162	12.212185510358
0	193	249.575468425966	16.497450195137
0	195	250.951204318775	6.363721367216
0	200	252.609278041008	6.657545249616
0	214	259.264212117538	6.787383128541
0	219	270.001905866321	16.137993065247
0	221	270.243875183234	16.259220295964
0	223	274.010379282748	19.670166246792
0	225	275.72479497197	20.935131153714
0	227	276.099765195296	14.028753858315
0	233	289.403579213263	0
0	243	301.076498916904	11.016215330508
0	251	322.715693948576	29.905833678154
0	253	323.905045254008	22.994012413198
0	261	331.361053069157	16.665953966731
0	272	336.601988390721	18.152690931433
0	277	341.465441605012	13.367939911468
0	279	349.276957599495	20.19667843696
0	281	350.446661488126	17.258162618402
0	286	355.910748276428	22.011099471785
0	288	359.355756836243	24.70254198794
0	299	362.40660743393	21.120243431831
0	304	366.483713802204	11.840768782937
0	306	366.723877173278	7.350237784216
0	311	370.876812346425	11.326482761096
0	313	373.566211924662	12.174717980687
0	315	377.7263454912	14.18978249551
0	317	387.910778456786	18.178861173666
0	323	406.216542886245	0
0	330	416.347219075077	6.893975331699
0	335	423.983327216456	11.714158627297
0	337	424.563196809121	2.854289362092
0	343	432.727496613609	0
0	356	446.677027551865	13.8230232175
0	358	449.213799191707	12.544108282611
0	360	449.459675349948	6.313125945854
0	365	454.844522633158	8.312080488783
0	376	460.212856024611	7.674250153255
0	378	467.139809419924	10.036210060674
0	383	475.020766441192	17.71765830345
0	385	476.457466766984	18.075135713522
0	387	479.955006320906	12.541335606503
0	393	481.089761384991	0
0	398	486.032222942559	0
0	402	494.885070139601	8.606578427181
0	416	499.887917032274	4.751189789194
0	424	506.224050495332	9.425244357067
0	435	512.769511616466	15.007560863516
0	443	515.521879238298	15.954515731908
0	448	519.691785402589	16.01265804675
0	456	534.03716829455	30.314664090997
0	461	537.18371139121	29.799323923088
0	463	537.699088519516	29.844032334032
0	468	543.01386547167	31.376805148381
0	470	544.237260568927	29.483021114339
0	472	544.923394639864	29.554706845644
0	477	547.004841832196	30.646642527883
0	482	568.483501779492	40.472482172091
0	487	573.686206133005	43.987155803106
0	489	577.161373079273	41.518684338212
0	494	588.466460642263	48.665714825538
0	496	588.481886015007	43.372932454499
0	504	599.15239389192	43.061952868091
0	512	603.640623721532	30.229101715797
0	517	604.806345050223	25.658564107439
0	519	605.393018392811	13.880122598422
0	521	605.7633507803	8.703880112197
0	523	608.055192783363	6.904812139676
0	534	617.874534521707	15.523237289599
0	536	621.53378038213	17.617641975465
0	538	622.40130605195	12.770939071772
0	540	623.830306596919	12.43172128485
0	551	632.204844092478	18.345934999605
0	553	641.600975886414	15.511390530225
0	555	650.276148992537	23.089961181507
0	560	651.516038983866	23.787382015002
0	568	655.036421475111	4.32347560189
0	570	656.091853634247	4.36424180009
0	572	658.018914408809	5.815867916247
0	577	664.1766205448	0.470639063714
0	583	671.085442181615	0
0	588	686.372009834044	0
0	592	688.028229468123	0.211585385918
0	598	695.238378571627	0
0	603	704.955558108279	0
0	607	707.915518242022	1.893469787725
0	613	717.110891903035	0
0	618	738.762371841104	0
0	623	740.872567431146	0
1	5	2.326887443914	0.928166644196
1	10	9.873012215148	3.162879027911
1	24	22.716864465676	12.813542997007
1	29	27.371153041265	15.700014305949
1	37	37.665328990485	24.978747603736
1	45	44.411707343355	22.797973704583
1	53	58.836468809785	32.669357979546
1	58	62.130157994451	30.510456504226
1	66	68.665573421768	35.410677161475
1	83	86.787008189567	48.468632512353
1	88	97.086291221554	57.106611332658
1	93	100.807804335411	53.493139233859
1	95	102.428240494602	50.740441947625
1	97	103.839111692219	42.847212121851
1	99	111.467666205336	46.270941772944
1	101	115.894297049301	47.889850675575
1	106	127.37746934045	54.69435639173
1	108	127.543684141154	50.600055425111
1	110	129.467352603495	48.37610827917
1	112	132.47248567676	50.788312419123
1	114	136.114580210144	53.025162927562
1	119	141.160152552916	48.355165621355
1	121	143.00425687526	44.585242161917
1	135	155.044641673267	30.176738871025
1	137	159.433931182072	22.957632124734
1	139	173.322591753678	26.636269572618
1	144	181.325819269685	30.138344731999
1	149	188.234737077344	34.867979671805
1	163	214.054945557174	59.343129227477
1	168	221.866415420524	45.869345004236
1	170	225.196578361085	42.268048639327
1	172	226.968599350141	36.194739858554
1	174	227.131924161312	23.199564662351
1	176	227.67311536532	17.324465795626
1	184	237.272745923716	25.805799980188
1	189	244.772862572162	25.767045460345
1	194	249.575468425966	17.014791364162
1	196	250.951204318775	17.873186087946
1	201	252.609278041008	8.021795089449
1	215	259.264212117538	13.312479326146
1	220	270.001905866321	17.525076877324
1	222	270.243875183234	16.37996238216
1	224	274.010379282748	20.025724395478
1	226	275.72479497197	21.384581936014
1	228	276.099765195296	21.31010137704
1	230	276.217360125058	14.146348788077
1	244	301.076498916904	11.672919703641
1	252	322.715693948576	32.65541036218
1	254	323.905045254008	31.095184983586
1	262	331.361053069157	30.450020228347
1	273	336.601988390721	21.906889288295
1	278	341.465441605012	23.016144145724
1	280	349.276957599495	21.179455905951
1	282	350.446661488126	21.366382325591
1	287	355.910748276428	22.722249406704
1	289	359.355756836243	25.4561080316
1	300	362.40660743393	27.753392585627
1	305	366.483713802204	25.197349800105
1	307	366.723877173278	12.080932154011
1	312	370.876812346425	11.503172957363
1	314	373.566211924662	14.015882339333
1	316	377.7263454912	16.334851547225
1	318	387.910778456786	24.374215461096
1	320	391.601828838161	21.869911555041
1	331	416.347219075077	10.130676188832
1	336	423.983327216456	14.530083473078
1	338	424.563196809121	12.294028219962
1	340	425.242005731376	3.533098284347
1	357	446.677027551865	13.949530938256
1	359	449.213799191707	16.359794857342
1	361	449.459675349948	12.789984440852
1	366	454.844522633158	11.697973229064
1	377	460.212856024611	13.680413880236
1	379	467.139809419924	14.601203548568
1	384	475.020766441192	17.917167081942
1	386	476.457466766984	19.154358629242
1	388	479.955006320906	21.572675267444
1	390	480.26001540795	12.846344693547
1	395	482.523725656416	1.433964271425
1	403	494.885070139601	8.852847197042
1	417	499.887917032274	13.609425319854
1	425	506.224050495332	11.087323252252
1	436	512.769511616466	15.970705478201
1	444	515.521879238298	17.759928485348
1	449	519.691785402589	20.124421896199
1	457	534.03716829455	30.358040938711
1	462	537.18371139121	33.461207187657
1	464	537.699088519516	30.314701051394
1	469	543.01386547167	35.158809286186
1	471	544.237260568927	32.600200245638
1	473	544.923394639864	30.169155185276
1	478	547.004841832196	31.636154037976
1	483	568.483501779492	52.125302475179
1	488	573.686206133005	45.675186525604
1	490	577.161373079273	47.462322749374
1	495	588.466460642263	52.823771901202
1	497	588.481886015007	48.681140198282
1	505	599.15239389192	54.043440331412
1	513	603.640623721532	47.550182697703
1	518	604.806345050223	31.394823044488
1	520	605.393018392811	26.245237450027
1	522	605.7633507803	14.250454985911
1	524	608.055192783363	10.99572211526
1	535	617.874534521707	16.72415387802
1	537	621.53378038213	19.182483150022
1	539	622.40130605195	18.485167645285
1	541	623.830306596919	14.199939616741
1	552	632.204844092478	20.806258780409
1	554	641.600975886414	27.742066793541
1	556	650.276148992537	24.186563636348
1	561	651.516038983866	24.329851172836
1	569	655.036421475111	27.307764506247
1	571	656.091853634247	5.378907761026
1	573	658.018914408809	6.291302574652
1	578	664.1766205448	11.973574052238
1	580	665.876183476165	2.170201995079
1	585	675.119263226668	4.033821045053
1	593	688.028229468123	1.656219634079
1	595	688.110225514258	0.293581432053
1	600	695.602189742888	0.363811171261
1	608	707.915518242022	2.959960133743
1	610	711.842861864566	5.820813410269
1	615	724.224364062461	7.113472159426
1	620	740.605505353623	1.843133512519
1	626	747.681999348535	6.809431917389
