version 2
run Testbench_1-1115-20170516-19:21:26-59852
attr configname Testbench_1
attr datetime 20170516-19:21:26
attr experiment Testbench_1
attr inifile omnetpp.ini
attr iterationvars $0=300
attr iterationvars2 "$0=300, $repetition=15"
attr measurement $0=300
attr network Toll_road
attr processid 59852
attr repetition 15
attr replication #15
attr resultdir results
attr runnumber 1115
attr seedset 1115
param **.numBooths 3
param **.queue[*].serviceTime exponential(5.11s)
param **.source.interArrivalTime exponential(5.854s)
param **.source.numJobs 1000

vector 0  Toll_road.queue[0]  jobsProcessed:vector  ETV
attr interpolationmode  none
attr source  queueingTime
attr title  "jobs processed, vector"
vector 1  Toll_road.sink  lifeTime:vector  ETV
attr interpolationmode  none
attr title  "lifetime of arrived jobs, vector"
attr unit  s
0	3	3.007808531678	0
0	8	5.281679079382	0
0	18	11.732126685193	6.438667990305
0	26	19.224959229521	13.828951047671
0	28	22.529287813852	17.125335149278
0	42	35.9413213041	24.091683696002
0	44	36.9852901997	21.103210623087
0	49	45.188531320889	21.658976992814
0	51	50.704861391435	20.551256003098
0	56	60.922420590681	28.216152955063
0	58	62.853423062044	28.206907379719
0	60	63.953424148448	19.679468134521
0	77	84.293926358047	31.143865757722
0	82	87.999042259397	19.535319833609
0	90	92.743590357687	16.215514272942
0	98	96.945612276391	19.233084494849
0	103	102.181176131671	24.150544099557
0	111	113.657672092959	31.410958611201
0	116	130.334261580266	44.50419187161
0	121	133.022358453318	43.386895385309
0	132	139.175197221063	47.835938513047
0	140	146.844645313025	52.394755800909
0	145	150.294893914757	53.833143880607
0	150	156.174190291319	57.481031699295
0	152	159.061341609433	56.631017772055
0	154	166.1076644456	56.795889205615
0	156	171.089895869711	49.355820549924
0	161	172.921961637057	42.41692466957
0	163	173.619079674848	36.826905568696
0	165	173.657110223194	36.243677582975
0	176	194.13039762064	55.476285311351
0	184	197.88545601628	53.517305281196
0	192	204.985636679128	58.56751257498
0	194	206.719786240001	57.903531496736
0	199	211.616559619471	57.962862000493
0	204	213.179710913886	41.373991320095
0	215	230.636891976004	55.035395294712
0	217	230.761295025645	54.183238084951
0	222	231.894372956127	49.686614521577
0	230	237.392415925618	42.99194255178
0	238	253.479296351973	58.345651482603
0	240	256.332214427035	56.859420632891
0	245	263.806955216699	59.123228717255
0	247	264.534993146941	55.177881782392
0	249	265.585264536446	52.598248881797
0	251	269.479933934035	52.602755026018
0	256	279.23923533937	59.658926948667
0	267	287.683683866359	60.605366369225
0	269	301.090668448582	69.750050133477
0	283	307.657521812268	75.484217815594
0	288	309.584803957853	74.039567122943
0	296	317.315895974022	67.61992473533
0	298	320.868359625096	69.955633197952
0	306	325.518289243424	67.828702312593
0	311	326.97800415434	54.346025602939
0	313	327.013883913725	44.747360797448
0	318	346.629247400723	62.739788621491
0	323	353.117612491041	68.122893460201
0	328	353.698614915013	51.949662291732
0	333	367.236348839209	63.566488764053
0	344	380.613861565625	76.515709878908
0	349	391.062011841695	85.18261870655
0	351	392.05102279918	84.278115010895
0	356	399.852965452783	87.959094134026
0	358	400.231990096732	83.811494673112
0	363	414.193920348317	93.191983278421
0	368	416.641775530172	94.975431744669
0	370	420.139257300225	93.768987753503
0	375	425.218527116593	90.859696831723
0	380	430.920632775006	79.832348022823
0	382	434.631129550702	81.375896085512
0	384	441.331404409665	84.084854536812
0	386	442.325761328954	70.941234360699
0	388	442.501692688994	69.996692956933
0	390	447.341287509953	67.414695480165
0	392	450.98775390275	69.250246968826
0	394	453.769112274172	55.049665862477
0	399	456.460216315197	46.369837382638
0	404	462.237194385041	46.43688071226
0	406	463.536004962203	42.908010563027
0	408	463.604769835658	34.000171031566
0	410	464.575105340121	10.032310279243
0	412	465.897587875891	3.763416145852
0	420	472.797681474181	0.514631818181
0	422	473.720861967862	1.38850332217
0	430	479.160329485641	4.639222552047
0	435	485.927954222022	10.588199669152
0	437	487.275326324885	1.657940686411
0	443	490.097840076849	0
0	450	502.181030189414	11.132769690694
0	461	515.568067910097	19.582837935296
0	463	524.353583872792	21.494580189106
0	468	527.83789063975	21.937523335037
0	470	529.011243916786	17.710929115893
0	472	531.331924375099	6.138862219978
0	478	544.303777059523	0
0	488	565.0893596364	18.569068919622
0	499	572.464087809394	24.607183440664
0	516	597.926068180221	37.531867158499
0	521	599.700804505112	33.994640203177
0	523	604.220996835385	31.806134151132
0	525	610.443804762735	37.990241487294
0	527	613.919427901532	39.297941442376
0	529	616.243630906797	39.914934172751
0	531	618.598918188577	35.291286683377
0	536	622.335026008826	37.138639968253
0	538	622.698019819643	34.711103853738
0	540	622.99207485784	24.747514554863
0	545	626.592196931852	7.122079834904
0	547	626.75926177683	1.620086932787
0	553	637.616163385587	0
0	558	650.151340498959	0
0	563	658.209682250005	0
0	568	658.844563213205	0
0	573	669.742409799686	0
0	586	679.309505127999	8.410312303326
0	591	681.448034780266	9.463338072063
0	596	686.516844526982	13.822042986993
0	598	689.041569448923	14.214339002136
0	612	701.438946962133	20.148491209012
0	614	704.101541622133	20.751162305251
0	619	708.042955522736	18.204316471232
0	621	714.945384106621	22.233932964835
0	629	716.43510741943	21.04026410262
0	631	716.716787110143	20.728930610126
0	636	719.844433601093	12.102186615691
0	638	720.37604617543	5.293630888802
0	643	723.845727430425	7.770323771171
0	645	724.478901067267	7.63957591372
0	647	725.732260412583	3.701862434871
0	652	728.932365892934	2.344915258244
0	658	744.671575629573	0
0	665	751.339494312535	1.660694608398
0	667	752.814877692826	2.559199639656
0	673	753.292587651304	0
0	678	764.58845685383	0
0	683	772.944780793913	0
0	687	776.774575782029	1.389342942262
0	693	781.213596259253	0
0	698	785.983844548954	0
0	703	791.532905260361	0
0	710	796.485632587877	4.723603499759
0	715	796.990891188879	0.755031439133
0	723	803.935503382633	7.026302174674
0	725	805.127893629307	5.518295823678
0	727	805.446754457342	5.471106795512
0	733	828.479446283834	0
0	738	831.886004406122	0
0	743	842.710965127393	0
0	750	853.622097229886	9.839469575606
0	752	855.896090342625	2.318719363336
0	757	860.140286862769	2.404186106289
0	763	868.162917411221	0
0	767	873.552441416738	0.732055715746
0	773	883.067592041143	0
0	778	885.785558287223	0
0	783	886.489668418878	0
0	787	895.843411325189	1.955894551292
0	798	902.96346146812	6.423994970247
0	800	904.854274477284	5.94234785461
0	811	911.817335285775	10.088200778893
0	813	913.006489504616	6.557712599746
0	815	914.549579624373	4.374522409028
0	817	915.255329019793	4.385984363321
0	822	926.947185074439	0.646004898132
0	827	937.878093432972	9.896963282484
0	832	938.955613382844	0.485358661547
0	838	945.529963385596	0
0	842	949.156147063651	0.825358074058
0	848	959.596856396926	0
0	855	972.216113084401	2.549213067985
0	857	973.465029467825	2.754650850295
0	863	1005.308096561468	0
0	873	1008.28235888606	2.667608882537
0	878	1011.897639800617	5.30421861595
0	880	1012.796088823832	6.0930697688
0	882	1014.264862189392	5.498211262661
0	893	1022.078058832857	5.960664975913
0	898	1042.861520866056	26.112760024862
0	900	1047.675949259572	28.318653039817
0	908	1049.344787309706	15.546412074503
0	910	1049.719623038931	1.767707078874
0	912	1051.629146835656	3.492121300149
0	920	1052.50863491852	0.777959606838
0	922	1052.801929341317	0.657601654085
0	928	1068.774666676556	0
0	935	1078.46266110399	6.56178902967
0	937	1081.397918947481	9.061418596842
0	960	1098.237334521081	16.34301022771
0	962	1102.389192011655	18.656728666946
0	964	1102.558252706258	15.01111101777
0	966	1106.184928897912	17.231067435277
0	980	1120.176558314445	27.898536229946
0	985	1127.808432946534	32.786400829759
0	987	1131.142307506103	34.570150602814
0	992	1134.613428659045	26.400620899528
0	997	1140.9412578875	29.342092032982
0	999	1142.01622162643	28.743877079022
0	1007	1145.181542464425	28.636842825481
0	1009	1156.900321274099	36.021424080967
0	1020	1160.74258076878	27.303419496545
0	1022	1162.776277817383	24.067541869337
0	1030	1171.891710122491	27.84151892801
0	1032	1172.370622717098	27.502112255742
0	1037	1174.103400824445	16.904276841296
0	1039	1181.553175425874	21.392731523261
0	1041	1182.453928814007	21.940954387189
0	1046	1186.840962233908	21.309519564601
0	1048	1188.477712294867	18.477599061652
0	1050	1191.816500091839	18.065921909607
0	1052	1195.814205474931	9.278822201692
0	1057	1201.93555487335	0.767163640385
0	1074	1222.601715334055	14.576986287692
0	1076	1223.638172610512	13.722849113171
0	1087	1235.033373071925	25.052901011102
0	1089	1251.023225017126	38.155688918861
0	1091	1256.241592702759	37.758069861993
0	1096	1259.586877628321	33.518601792844
0	1098	1261.280161030421	32.839056026614
0	1103	1267.909739611718	34.529181597815
0	1105	1272.268363599282	15.37218306773
0	1116	1284.703016848343	17.586783732112
0	1118	1287.966060976834	15.437002149748
0	1120	1290.056367058346	13.514948702597
0	1122	1290.439403789643	9.234180366534
0	1128	1292.836927440487	0
0	1138	1307.259788322008	13.428207660921
0	1146	1313.026330057126	13.2074405957
0	1151	1320.421288253813	15.630720063633
0	1153	1320.466641617489	10.218183822628
0	1155	1322.974481169722	11.550269284883
0	1163	1333.8047702618	13.782145243325
0	1165	1334.875601237643	9.906136503852
0	1167	1336.778527669089	7.255763199158
0	1173	1353.246146418422	0
0	1177	1356.822269469046	0.619273372535
0	1182	1358.42149567912	0.322040801509
0	1190	1366.15461458196	7.390948485248
0	1201	1383.565630339171	24.262727072697
0	1203	1389.529137994157	21.753059503257
0	1208	1389.853740441934	18.36654665422
0	1210	1392.763858370037	16.219584219246
0	1218	1400.176573329064	10.510232251795
0	1220	1400.878348531177	1.249594283244
0	1225	1401.732872713422	1.927993947213
0	1227	1403.488190478707	1.971484502915
0	1235	1410.110243573872	6.613043523202
0	1258	1443.97962016069	37.104872670354
0	1263	1445.433082255423	31.577283433817
0	1268	1446.750378170263	31.235923980754
0	1279	1460.761412979238	42.717504911446
0	1281	1466.848896210734	41.786135594446
0	1286	1470.080846626043	43.441000337567
0	1288	1470.397778802937	35.573075113747
0	1293	1472.709453686587	34.674147371852
0	1310	1480.981333835583	36.536945888518
0	1315	1483.312895165665	37.729915650431
0	1317	1485.581661428288	31.698295992434
0	1322	1493.223938617679	39.085176654496
0	1327	1494.169215020547	35.398427040619
0	1332	1496.042322963015	26.686907438659
0	1334	1503.707160833891	31.460744701559
0	1339	1504.301796208238	29.397875882094
0	1347	1518.579593013454	43.266312242723
0	1355	1521.40142464121	43.828456689873
0	1360	1527.822704453335	47.075399390329
0	1362	1531.955102352547	51.193164171958
0	1370	1542.191178492321	60.089570047069
0	1372	1544.313290076364	51.425468965572
0	1374	1546.043086048505	52.117273330679
0	1376	1550.032573993884	55.645384228455
0	1387	1576.175530467169	72.425111466883
0	1389	1576.600515251166	70.244888291819
0	1391	1576.720189017923	70.151605613192
0	1393	1577.307468270737	58.451961735965
0	1395	1580.584771464579	59.450206788716
0	1397	1580.633311807605	54.43483508571
0	1399	1590.736341114191	57.825890740259
0	1401	1591.613491463106	54.925596048147
0	1403	1592.362617411117	39.585900009068
0	1408	1596.639353610646	24.920886567051
0	1410	1597.203739656197	22.599234469077
0	1415	1600.153013561128	3.661469481696
0	1417	1607.886659417821	8.340430492583
0	1425	1616.050055355965	1.421403869118
0	1427	1618.558679362103	3.819651459488
0	1432	1623.339900263285	0.151694592147
0	1438	1630.60925675965	0
0	1443	1636.106884491331	0
0	1448	1651.235518035662	0
0	1453	1655.419570958069	0
0	1458	1659.752119815096	0
0	1463	1688.7390908878	0
0	1468	1703.492589783663	0
0	1473	1713.251856657953	0
0	1478	1717.981908867709	0
0	1483	1730.547912710624	0
0	1487	1735.568753984968	2.734588007229
0	1493	1740.523575264565	0
0	1498	1744.678355182937	3.361303307585
1	5	4.504464577565	1.496656045887
1	19	11.732126685193	6.450447605811
1	27	19.224959229521	13.931500534633
1	29	22.529287813852	17.133279632002
1	43	35.9413213041	30.537368639526
1	45	36.9852901997	25.135652591602
1	50	45.188531320889	29.306451744276
1	52	50.704861391435	27.17530706336
1	57	60.922420590681	30.768815202344
1	59	62.853423062044	30.147155426426
1	61	63.953424148448	29.306908466123
1	78	84.293926358047	40.01997034412
1	83	87.999042259397	34.848981659072
1	91	92.743590357687	24.279867931899
1	99	96.945612276391	20.417536191646
1	104	102.181176131671	24.468648350129
1	112	113.657672092959	35.627040060845
1	117	130.334261580266	48.087548098508
1	122	133.022358453318	47.192288744662
1	133	139.175197221063	49.539734153054
1	141	146.844645313025	55.505386605009
1	146	150.294893914757	55.845004402641
1	151	156.174190291319	59.712440257169
1	153	159.061341609433	60.368183017409
1	155	166.1076644456	63.677340608222
1	157	171.089895869711	61.778120629726
1	162	172.921961637057	51.18788631727
1	164	173.619079674848	43.114042707361
1	166	173.657110223194	36.864936117042
1	177	194.13039762064	56.716964980421
1	185	197.88545601628	59.231343706991
1	193	204.985636679128	60.617485944044
1	195	206.719786240001	60.301662135853
1	200	211.616559619471	62.800304876206
1	205	213.179710913886	59.526013294908
1	216	230.636891976004	58.831172382213
1	218	230.761295025645	55.159798344353
1	223	231.894372956127	55.316316015433
1	231	237.392415925618	55.184657491068
1	239	253.479296351973	59.078822978135
1	241	256.332214427035	61.198569557665
1	246	263.806955216699	64.334161422555
1	248	264.534993146941	59.851266647497
1	250	265.585264536446	56.228153171897
1	252	269.479933934035	56.492918279386
1	257	279.23923533937	62.362056431353
1	268	287.683683866359	68.103375475656
1	270	301.090668448582	74.012350951448
1	284	307.657521812268	76.316903497163
1	289	309.584803957853	77.411499961179
1	297	317.315895974022	81.770659139112
1	299	320.868359625096	71.172388386404
1	307	325.518289243424	74.60556281628
1	312	326.97800415434	69.288417223509
1	314	327.013883913725	54.381905362324
1	319	346.629247400723	64.362724284446
1	324	353.117612491041	69.228153711809
1	329	353.698614915013	68.703895884173
1	334	367.236348839209	65.487396215928
1	345	380.613861565625	76.944001490469
1	350	391.062011841695	86.963860154978
1	352	392.05102279918	86.171629664035
1	357	399.852965452783	92.080057664498
1	359	400.231990096732	88.338118777975
1	364	414.193920348317	97.773424924697
1	369	416.641775530172	95.639838460276
1	371	420.139257300225	98.472913514722
1	376	425.218527116593	98.848257569871
1	381	430.920632775006	96.561802490136
1	383	434.631129550702	83.542844798519
1	385	441.331404409665	88.076170944475
1	387	442.325761328954	85.079211456101
1	389	442.501692688994	71.117165720739
1	391	447.341287509953	74.836287777892
1	393	450.98775390275	71.061161872962
1	395	453.769112274172	72.031605340248
1	400	456.460216315197	57.740769903502
1	405	462.237194385041	52.146815452482
1	407	463.536004962203	47.735691289422
1	409	463.604769835658	42.976775436482
1	411	464.575105340121	34.970506536029
1	413	465.897587875891	11.354792815013
1	421	472.797681474181	10.663509744142
1	423	473.720861967862	1.437812311862
1	431	479.160329485641	6.827970839949
1	436	485.927954222022	11.406847288428
1	438	487.275326324885	11.935571772015
1	440	490.033326064692	4.415940426218
1	451	502.181030189414	12.083190112565
1	462	515.568067910097	24.519807411377
1	464	524.353583872792	28.368353897991
1	469	527.83789063975	24.978886956064
1	471	529.011243916786	23.110876612073
1	473	531.331924375099	20.031609574206
1	475	531.591630736991	6.39856858187
1	489	565.0893596364	20.785582576877
1	500	572.464087809394	25.943797092616
1	517	597.926068180221	50.069163811491
1	522	599.700804505112	39.30660348339
1	524	604.220996835385	38.51483253345
1	526	610.443804762735	38.028942078482
1	528	613.919427901532	41.465864626091
1	530	616.243630906797	41.622144447641
1	532	618.598918188577	42.270221454531
1	537	622.335026008826	39.027394503626
1	539	622.698019819643	37.50163377907
1	541	622.99207485784	35.005158891935
1	546	626.592196931852	28.347636628875
1	548	626.75926177683	7.289144679882
1	550	630.234824640354	5.095649796311
1	555	642.913517404626	5.297354019039
1	560	651.712536826273	1.561196327314
1	565	658.730242040688	0.520559790683
1	570	666.999786701806	8.155223488601
1	587	679.309505127999	9.567095328313
1	592	681.448034780266	10.548841955593
1	597	686.516844526982	14.532147818779
1	599	689.041569448923	16.346767908934
1	613	701.438946962133	26.611716515346
1	615	704.101541622133	22.811085869012
1	620	708.042955522736	24.692576205854
1	622	714.945384106621	25.106745055117
1	630	716.43510741943	23.723656277644
1	632	716.716787110143	21.321943793333
1	637	719.844433601093	23.856577101076
1	639	720.37604617543	12.633799190028
1	644	723.845727430425	8.763312143797
1	646	724.478901067267	8.403497408013
1	648	725.732260412583	8.892935259036
1	653	728.932365892934	6.901967915222
1	655	741.604611514349	15.017160879659
1	666	751.339494312535	6.667918682962
1	668	752.814877692826	3.136077988689
1	670	753.085138180872	2.829460127702
1	675	758.36010911567	5.067521464366
1	680	764.854256144071	0.265799290241
1	688	776.774575782029	3.829794988116
1	690	780.113026186963	4.727793347196
1	695	783.612365087626	2.398768828373
1	700	787.988316882146	2.004472333192
1	711	796.485632587877	4.952727327516
1	716	796.990891188879	5.228862100761
1	724	803.935503382633	7.699643632887
1	726	805.127893629307	8.218692421348
1	728	805.446754457342	5.837156651713
1	730	806.642259408368	6.666611746538
1	735	829.15425900163	0.674812717796
1	740	840.918618858555	9.032614452433
1	751	853.622097229886	10.911132102493
1	753	855.896090342625	12.113462688345
1	758	860.140286862769	6.56291588348
1	760	866.782730454662	9.046629698182
1	768	873.552441416738	5.389524005517
1	770	882.172416104889	9.352030403897
1	775	884.72452388258	1.656931841437
1	780	886.325167447832	0.539609160609
1	788	895.843411325189	9.353742906311
1	799	902.96346146812	9.075944694223
1	801	904.854274477284	8.314807979411
1	812	911.817335285775	12.905408663101
1	814	913.006489504616	11.277354997734
1	816	914.549579624373	8.100802719503
1	818	915.255329019793	5.080271804448
1	823	926.947185074439	16.077840417967
1	828	937.878093432972	11.576913256665
1	833	938.955613382844	10.974483232356
1	835	939.538639761831	1.068385040534
1	843	949.156147063651	3.626183678055
1	845	950.169321722421	1.838532732828
1	856	972.216113084401	12.619256687475
1	858	973.465029467825	3.798129451409
1	860	976.128050650735	5.417672033205
1	874	1008.28235888606	2.974262324592
1	879	1011.897639800617	6.282889797094
1	881	1012.796088823832	6.202667639165
1	883	1014.264862189392	7.56184313436
1	894	1022.078058832857	13.311407906126
1	899	1042.861520866056	26.744127009112
1	901	1047.675949259572	30.927188418378
1	909	1049.344787309706	29.987491089951
1	911	1049.719623038931	15.921247803728
1	913	1051.629146835656	3.677230875599
1	921	1052.50863491852	4.371609383013
1	923	1052.801929341317	1.071254029635
1	925	1054.845617446907	2.701289759675
1	936	1078.46266110399	9.687994427434
1	938	1081.397918947481	9.497046873161
1	961	1098.237334521081	25.900834170442
1	963	1102.389192011655	20.494867718284
1	965	1102.558252706258	18.825789361549
1	967	1106.184928897912	18.637787209424
1	981	1120.176558314445	31.22269685181
1	986	1127.808432946534	35.530410862035
1	988	1131.142307506103	36.120275389328
1	993	1134.613428659045	38.041271755756
1	998	1140.9412578875	32.728450127983
1	1000	1142.01622162643	30.417055771912
1	1008	1145.181542464425	31.909197917017
1	1010	1156.900321274099	40.355621635155
1	1021	1160.74258076878	39.863683575648
1	1023	1162.776277817383	29.337116545148
1	1031	1171.891710122491	33.182974174445
1	1033	1172.370622717098	28.320431522617
1	1038	1174.103400824445	29.234890363089
1	1040	1181.553175425874	24.354051442725
1	1042	1182.453928814007	22.293484911394
1	1047	1186.840962233908	26.32798780709
1	1049	1188.477712294867	22.94626962556
1	1051	1191.816500091839	21.816386858624
1	1053	1195.814205474931	22.063627292699
1	1058	1201.93555487335	15.400171600111
1	1075	1222.601715334055	21.43332410109
1	1077	1223.638172610512	15.613443564149
1	1088	1235.033373071925	25.118049574584
1	1090	1251.023225017126	41.042752956303
1	1092	1256.241592702759	43.374056604494
1	1097	1259.586877628321	41.103354787555
1	1099	1261.280161030421	35.211885194944
1	1104	1267.909739611718	39.468634607911
1	1106	1272.268363599282	38.887805585379
1	1117	1284.703016848343	27.806836316791
1	1119	1287.966060976834	20.849827860603
1	1121	1290.056367058346	17.52730823126
1	1123	1290.439403789643	13.897985433894
1	1125	1290.808774847077	9.603551423968
1	1139	1307.259788322008	14.422860881521
1	1147	1313.026330057126	19.194749396039
1	1152	1320.421288253813	20.602398792387
1	1154	1320.466641617489	15.676073427309
1	1156	1322.974481169722	12.726023374861
1	1164	1333.8047702618	22.380558376961
1	1166	1334.875601237643	14.852976219168
1	1168	1336.778527669089	11.809062935298
1	1170	1337.417213721841	7.89444925191
1	1178	1356.822269469046	3.576123050624
1	1183	1358.42149567912	2.218499582609
1	1191	1366.15461458196	8.055159704349
1	1202	1383.565630339171	24.801964242459
1	1204	1389.529137994157	30.226234727683
1	1209	1389.853740441934	22.077661951034
1	1211	1392.763858370037	21.276664582323
1	1219	1400.176573329064	23.632299178273
1	1221	1400.878348531177	11.212007453908
1	1226	1401.732872713422	2.104118465489
1	1228	1403.488190478707	3.683311712498
1	1236	1410.110243573872	8.59353759808
1	1259	1443.97962016069	40.48242011002
1	1264	1445.433082255423	38.558334765087
1	1269	1446.750378170263	32.894579348657
1	1280	1460.761412979238	45.246958789729
1	1282	1466.848896210734	48.804988142942
1	1287	1470.080846626043	45.018086009755
1	1289	1470.397778802937	43.757932514461
1	1294	1472.709453686587	37.884749997397
1	1311	1480.981333835583	42.946027520848
1	1316	1483.312895165665	38.8685072186
1	1318	1485.581661428288	39.998681913054
1	1323	1493.223938617679	39.340573181825
1	1328	1494.169215020547	40.030453057364
1	1333	1496.042322963015	37.271534983087
1	1335	1503.707160833891	34.351745309535
1	1340	1504.301796208238	32.055380075906
1	1348	1518.579593013454	43.67567268731
1	1356	1521.40142464121	46.088143870479
1	1361	1527.822704453335	50.249736501998
1	1363	1531.955102352547	51.207797289541
1	1371	1542.191178492321	61.429240311732
1	1373	1544.313290076364	62.211681631112
1	1375	1546.043086048505	53.155264937713
1	1377	1550.032573993884	56.106761276058
1	1388	1576.175530467169	81.78834070174
1	1390	1576.600515251166	72.85009625088
1	1392	1576.720189017923	70.364562058576
1	1394	1577.307468270737	70.738884866006
1	1396	1580.584771464579	61.729264929807
1	1398	1580.633311807605	59.498747131742
1	1400	1590.736341114191	64.537864392296
1	1402	1591.613491463106	58.703041089174
1	1404	1592.362617411117	55.674721996158
1	1409	1596.639353610646	43.862636208597
1	1411	1597.203739656197	25.485272612602
1	1416	1600.153013561128	25.548508374008
1	1418	1607.886659417821	11.395115338389
1	1426	1616.050055355965	16.503826430727
1	1428	1618.558679362103	3.930027875256
1	1433	1623.339900263285	8.60087236067
1	1435	1629.843263938995	6.655058267857
1	1440	1631.116605280251	0.507348520601
1	1445	1639.354539242772	3.247654751441
1	1450	1651.487155086219	0.251637050557
1	1455	1656.216190222109	0.79661926404
1	1460	1663.527667267065	3.775547451969
1	1465	1693.555725976015	4.816635088215
1	1470	1710.945921387808	7.453331604145
1	1475	1716.696138691912	3.444282033959
1	1480	1721.122083168953	3.140174301244
1	1488	1735.568753984968	5.020841274344
1	1490	1737.183399054108	4.349233076369
1	1499	1744.678355182937	4.154779918372
1	1501	1745.794972257105	4.477920381753
