version 2
run Testbench_1-837-20170516-19:20:09-55736
attr configname Testbench_1
attr datetime 20170516-19:20:09
attr experiment Testbench_1
attr inifile omnetpp.ini
attr iterationvars $0=225
attr iterationvars2 "$0=225, $repetition=37"
attr measurement $0=225
attr network Toll_road
attr processid 55736
attr repetition 37
attr replication #37
attr resultdir results
attr runnumber 837
attr seedset 837
param **.numBooths 3
param **.queue[*].serviceTime exponential(5.11s)
param **.source.interArrivalTime exponential(5.854s)
param **.source.numJobs 1000

vector 0  Toll_road.queue[0]  jobsProcessed:vector  ETV
attr interpolationmode  none
attr source  queueingTime
attr title  "jobs processed, vector"
vector 1  Toll_road.sink  lifeTime:vector  ETV
attr interpolationmode  none
attr title  "lifetime of arrived jobs, vector"
attr unit  s
0	3	13.013025148696	0
0	7	14.047136914819	0.138653807142
0	13	18.468220246376	0
0	20	27.959422939662	3.857799939653
0	28	31.394075492003	6.149747272586
0	30	31.784040639607	3.128266412172
0	35	35.66415910529	6.352812523958
0	37	36.971812826878	2.627229553718
0	43	39.382071991002	0
0	47	50.048632840759	6.937674544088
0	53	56.365309571433	0
0	57	58.022994856488	1.273931255979
0	63	59.64801866634	0
0	68	62.424588449341	0
0	73	69.667121980404	0
0	78	75.402048774895	0
0	85	79.960075452248	3.826241938363
0	87	87.44813124038	7.85312848244
0	93	93.623164117527	0
0	98	99.700865149397	0
0	102	109.218514511567	3.910821651142
0	108	113.093713309336	0
0	112	116.896367587561	2.396903870104
0	117	120.443708614296	1.150369048258
0	123	122.469264108273	0
0	128	139.196619156811	0
0	133	140.244509992269	0
0	137	144.127541527564	3.355989238075
0	142	148.968198235903	1.13154333575
0	153	156.536767240417	7.358293410379
0	155	162.419506727963	13.071560606711
0	157	165.585372397965	14.586429123634
0	162	177.536786213615	11.185809048
0	168	186.885726594166	0
0	178	192.656018953839	4.3363731641
0	183	194.580564444378	5.580882273129
0	188	196.655169096528	4.708711963394
0	190	202.343594720904	7.861647430128
0	192	204.629297691018	8.04788962514
0	197	210.493456427302	4.266800406416
0	203	217.763638683012	0
0	210	230.928755953374	12.000482302221
0	212	233.65432926497	11.847852533286
0	218	239.170242412382	0
0	223	241.478376348778	0
0	227	251.84796878983	8.459080311035
0	238	260.720282482727	6.23987471146
0	240	262.451301067364	6.946540200686
0	245	272.840569726937	16.590501801429
0	250	278.32346255833	12.707042051456
0	252	279.219950398701	4.947860969067
0	260	287.729206744389	4.194112180881
0	265	292.149026200572	5.599762847373
0	267	294.66194308884	4.780940604801
0	272	306.09040209118	11.205901701001
0	278	335.948013789918	0
0	283	337.019388817407	0
0	293	347.577860708482	8.065677324909
0	295	351.207750160277	3.90248867593
0	300	360.052014478271	12.644877411731
0	305	364.067371334557	11.807607763853
0	307	368.018716111293	5.721930794626
0	313	374.527345340676	0
0	318	386.467333509026	0
0	322	387.565831780099	0.250311106066
0	328	392.224132712902	0
0	333	399.091942997208	0
0	337	403.5682519998	1.834607347092
0	351	416.817305806575	7.040527473172
0	359	423.418623546786	12.419739006676
0	361	423.905580970443	9.748652002782
0	363	426.459990137323	9.962207361886
0	368	435.192831670594	17.092758967147
0	376	438.328726807597	19.41011400181
0	381	443.837722873355	8.658982345745
0	386	445.724043725523	10.018546834532
0	394	455.080069665508	18.53500405209
0	396	457.01865105206	17.675083949612
0	401	468.105190012108	23.705605836959
0	409	474.876638667116	27.012772429945
0	429	501.9422649836	50.593333246113
0	434	506.667099882576	48.311150778688
0	436	507.362464851499	36.218214769108
0	444	514.345925231795	42.445956450617
0	446	514.430469347487	34.639039542371
0	448	519.077975254814	37.309439017174
0	453	529.366604310617	44.686843351793
0	455	535.303442009749	48.589584491971
0	460	546.091238582197	54.552373092463
0	468	558.883622136224	65.519791660671
0	482	562.271982871007	58.618895329197
0	490	567.333993341573	59.57401965004
0	492	572.178551814173	61.711798931395
0	494	581.251675301694	56.379429100226
0	496	586.149363919557	48.91712085377
0	498	588.18699915289	41.800153716551
0	503	592.417739444133	42.54001341631
0	505	592.436004793156	33.54744858471
0	507	595.101223887258	35.395335245579
0	512	606.200725225835	45.752105040395
0	514	607.18668552217	44.971335154624
0	525	611.614558881319	45.902759883353
0	533	620.533775962798	54.177534363449
0	541	637.378482518339	47.429284420975
0	543	638.241400302952	40.147534033897
0	545	639.948335055905	31.978963736774
0	547	641.226319403901	32.008926263801
0	552	643.832443814406	33.372798683004
0	557	658.232472303102	42.889858012384
0	559	663.245637207544	43.818506209437
0	567	670.013498515059	46.373039773034
0	572	685.249614222703	58.787180670317
0	577	689.037097455744	46.274107352421
0	579	692.053882527438	48.008554442026
0	584	701.475828535615	33.318039338299
0	586	708.305762543227	39.540618181746
0	588	709.900717380373	27.709215550678
0	593	712.480234367458	27.149988059815
0	595	712.591461832096	16.294766474422
0	600	718.713066256288	8.006590433663
0	605	723.485564478825	7.492977997745
0	610	724.876638991762	4.797025233497
0	612	726.156877727973	1.542975764405
0	618	740.045711817567	0
0	623	747.300351380333	0
0	628	772.00296682729	0
0	633	777.181635546547	0
0	638	780.254527789305	0
0	651	787.126362454417	5.852797108967
0	662	799.864428220785	16.546502199318
0	664	802.161744291902	17.650099718912
0	669	804.491081467669	17.552361991846
0	671	812.523313168622	22.911607332901
0	673	816.922142378412	25.103385199083
0	678	818.731393591624	23.847873015665
0	686	830.557825542246	26.575326466746
0	688	834.160965488243	16.469769595455
0	693	839.67257163582	19.807709301142
0	695	847.79051473995	23.280102782899
0	697	851.897874615557	14.700245173849
0	702	853.6074267161	0.570304395515
0	708	856.77313209403	0
0	712	867.458389526628	7.924989985048
0	718	872.742786156457	0
0	734	896.423664217602	22.213540266356
0	739	916.61542352082	36.598660375683
0	741	923.143578519417	34.596547037153
0	743	928.565558903571	36.27913760658
0	745	929.241027447453	35.034850193072
0	747	929.518370978111	16.972822367447
0	753	938.589144174469	0
0	757	941.808389505158	1.820639027633
0	762	952.190806910108	0.907836415999
0	768	961.35344388537	0
0	772	970.077617302086	7.531019607229
0	780	977.937084595167	2.004050081072
0	794	992.886048666267	15.094391304543
0	796	994.354489875483	12.369596216692
0	804	1000.587576599429	17.784876032373
0	806	1001.375686471251	16.875662892633
0	808	1002.604449551951	16.242927369674
0	810	1005.44824966191	10.892045788138
0	824	1021.899379877536	26.392437825978
0	826	1022.890549215375	15.251879620858
0	834	1044.58237940117	35.661733754315
0	836	1046.580852527251	35.531834386406
0	838	1046.700425787955	33.542340320543
0	843	1060.279600421434	28.94269183781
0	845	1060.778223670774	16.998682268127
0	856	1064.276842779869	9.076422233462
0	864	1069.658401679603	8.567439423326
0	866	1069.708003920738	8.220166550328
0	880	1084.271531038521	20.426454198678
0	885	1089.494646275068	21.991570309967
0	890	1090.678039853245	22.66008991867
0	895	1095.837399015304	24.260788141892
0	897	1100.391654046309	22.70410239184
0	899	1104.015233267349	23.819880002733
0	901	1112.498320532459	28.282044807876
0	912	1117.688824302025	31.545683977643
0	914	1118.760228912848	28.430618649866
0	916	1119.378824988648	28.364502020359
0	918	1119.981677062294	4.650053841476
0	920	1120.743830799592	5.243343289415
0	922	1121.902880996094	4.302040510829
0	928	1127.216707639383	0
0	933	1135.816086613277	0
0	937	1137.94721185765	1.103323998844
0	945	1154.872877713803	14.645309193504
0	947	1155.867050786027	7.448070486967
0	953	1170.244062395769	0
0	957	1180.037556867932	0.328485650081
0	962	1196.582223674403	1.890096701759
0	967	1209.748371186979	10.405819716774
0	972	1221.37667992229	5.588336581545
0	978	1223.939894404354	0
0	983	1233.689937082177	0
0	988	1245.123355287302	0
0	993	1253.912517573189	0
0	998	1261.234594026888	0
0	1014	1275.142896441669	12.40435417624
0	1016	1276.934618127096	10.595165870871
0	1018	1278.904026495909	8.230107705837
0	1020	1283.593124252529	12.855252108583
0	1022	1284.725361572589	13.52342666962
0	1028	1285.50088731593	0
0	1032	1288.900402366349	0.334097840491
0	1037	1298.533917366302	6.672724352786
0	1042	1310.397674056629	7.383553554524
0	1056	1319.768200941635	8.681213747308
0	1064	1324.666636068579	12.22570421974
0	1066	1325.719748907446	12.336067023978
0	1068	1326.20217494901	11.515128722709
0	1070	1327.064475792666	5.962251748474
0	1072	1327.88635579099	5.68336833589
0	1078	1335.194461356582	0
0	1082	1340.746728610753	4.830764044415
0	1087	1349.224241492214	4.619248249482
0	1107	1365.137374613434	14.343977667522
0	1113	1369.185102715634	13.348428546536
0	1115	1371.578263808205	13.126157090487
0	1117	1388.681112985112	25.596121424424
0	1119	1395.795194584528	31.429369440868
0	1121	1412.402880614302	47.35194937969
0	1123	1422.662657932948	57.510867533345
1	8	14.047136914819	1.034111766123
1	10	14.073831200965	0.165348093288
1	21	27.959422939662	9.491202693286
1	29	31.394075492003	7.292452491994
1	31	31.784040639607	6.53971242019
1	36	35.66415910529	7.008384877855
1	38	36.971812826878	7.660466245546
1	40	37.694571041976	3.349987768816
1	48	50.048632840759	10.666560849757
1	50	51.555910077064	8.444951780393
1	58	58.022994856488	1.657685285055
1	60	58.772981820378	2.023918219869
1	65	61.850981899103	2.202963232763
1	70	65.009871237521	2.58528278818
1	75	69.954529347831	0.287407367427
1	86	79.960075452248	4.558026677353
1	88	87.44813124038	11.314297726495
1	90	89.289015751107	9.694012993167
1	95	97.118327264035	3.495163146508
1	103	109.218514511567	9.51764936217
1	105	112.266374187914	6.958681327489
1	113	116.896367587561	3.802654278225
1	118	120.443708614296	5.944244896839
1	120	122.143589755204	2.850250189166
1	125	128.347494256218	5.878230147945
1	130	139.833066691002	0.636447534191
1	138	144.127541527564	3.883031535295
1	143	148.968198235903	8.196645946414
1	154	156.536767240417	8.700112340264
1	156	162.419506727963	13.241032897925
1	158	165.585372397965	16.237426276713
1	163	177.536786213615	26.537842939284
1	165	184.269137458871	17.918160293256
1	179	192.656018953839	5.770292359673
1	184	194.580564444378	6.260918654639
1	189	196.655169096528	7.655486925279
1	191	202.343594720904	10.39713758777
1	193	204.629297691018	10.147350400242
1	198	210.493456427302	13.912048361424
1	200	212.294148379034	6.067492358148
1	211	230.928755953374	13.165117270362
1	213	233.65432926497	14.726055613817
1	215	234.652644105787	12.846167374103
1	220	239.218327485104	0.048085072722
1	228	251.84796878983	10.369592441052
1	239	260.720282482727	17.331394003932
1	241	262.451301067364	7.970893296097
1	246	272.840569726937	17.335808860259
1	251	278.32346255833	22.073394632822
1	253	279.219950398701	13.603529891827
1	261	287.729206744389	13.457117314755
1	266	292.149026200572	8.613931637064
1	268	294.66194308884	8.112679735641
1	273	306.09040209118	16.209399607141
1	275	310.409447308524	15.524946918345
1	280	336.937998660593	0.989984870675
1	294	347.577860708482	10.558471891075
1	296	351.207750160277	11.695566776704
1	301	360.052014478271	12.746752993924
1	306	364.067371334557	16.660234268017
1	308	368.018716111293	15.758952540589
1	310	373.542284412582	11.245499095915
1	315	376.882437590797	2.355092250121
1	323	387.565831780099	1.098498271073
1	325	387.685707078892	0.370186404859
1	330	394.427250656747	2.203117943845
1	338	403.5682519998	4.476309002592
1	352	416.817305806575	15.083661153867
1	360	423.418623546786	13.641845213383
1	362	423.905580970443	12.906696430333
1	364	426.459990137323	12.303061169662
1	369	435.192831670594	18.695048895157
1	377	438.328726807597	20.22865410415
1	382	443.837722873355	24.919110067568
1	387	445.724043725523	10.545303197913
1	395	455.080069665508	19.374572774517
1	397	457.01865105206	20.473585438642
1	402	468.105190012108	28.76162290966
1	410	474.876638667116	30.477054491967
1	430	501.9422649836	54.078398746429
1	435	506.667099882576	55.318168145089
1	437	507.362464851499	49.006515747611
1	445	514.345925231795	43.201675149404
1	447	514.430469347487	42.530500566309
1	449	519.077975254814	39.286545449698
1	454	529.366604310617	47.598068072977
1	456	535.303442009749	50.623681050925
1	461	546.091238582197	59.377381064419
1	469	558.883622136224	67.34475664649
1	483	562.271982871007	68.908152395454
1	491	567.333993341573	63.680905799763
1	493	572.178551814173	64.41857812264
1	495	581.251675301694	70.784922418916
1	497	586.149363919557	61.277117718089
1	499	588.18699915289	50.954756087103
1	504	592.417739444133	46.030894007794
1	506	592.436004793156	42.558278765333
1	508	595.101223887258	36.212667678812
1	513	606.200725225835	46.494836584156
1	515	607.18668552217	46.73806533673
1	526	611.614558881319	49.399208513773
1	534	620.533775962798	54.821976964832
1	542	637.378482518339	71.02224091899
1	544	638.241400302952	48.292202205588
1	546	639.948335055905	41.85446878685
1	548	641.226319403901	33.25694808477
1	553	643.832443814406	34.615050674306
1	558	658.232472303102	47.7728271717
1	560	663.245637207544	47.903022916826
1	568	670.013498515059	50.586367516952
1	573	685.249614222703	61.609155480678
1	578	689.037097455744	62.574663903358
1	580	692.053882527438	49.290892424115
1	585	701.475828535615	57.430500450203
1	587	708.305762543227	40.147973345911
1	589	709.900717380373	41.135573018892
1	594	712.480234367458	30.288732537763
1	596	712.591461832096	27.261215524453
1	601	718.713066256288	22.416370898614
1	606	723.485564478825	12.7790886562
1	611	724.876638991762	8.884052510682
1	613	726.156877727973	6.077263969708
1	615	738.245337250607	13.631435287039
1	620	740.874249988057	0.82853817049
1	625	748.525977670719	1.225626290386
1	630	773.94539309671	1.94242626942
1	635	777.630223682735	0.448588136188
1	652	787.126362454417	6.871834665112
1	663	799.864428220785	18.590862875335
1	665	802.161744291902	18.843818270435
1	670	804.491081467669	19.979436894679
1	672	812.523313168622	25.584593692799
1	674	816.922142378412	27.310436542691
1	679	818.731393591624	26.912636412295
1	687	830.557825542246	35.674304966287
1	689	834.160965488243	30.178466412743
1	694	839.67257163582	21.981375743032
1	696	847.79051473995	27.925652405272
1	698	851.897874615557	27.387462658506
1	703	853.6074267161	16.409797274392
1	705	854.648239452978	1.611117132393
1	713	867.458389526628	10.685257432598
1	715	870.19615271422	10.66275317264
1	735	896.423664217602	23.680878061145
1	740	916.61542352082	42.405299569574
1	742	923.143578519417	43.12681537428
1	744	928.565558903571	40.018527421307
1	746	929.241027447453	36.954606150462
1	748	929.518370978111	35.31219372373
1	750	931.67293217571	19.127383565046
1	758	941.808389505158	3.219245330689
1	763	952.190806910108	12.203056432583
1	765	952.247246652286	0.964276158177
1	773	970.077617302086	8.724173416716
1	781	977.937084595167	15.39048690031
1	795	992.886048666267	16.953014152172
1	797	994.354489875483	16.562832513759
1	805	1000.587576599429	18.602682940638
1	807	1001.375686471251	18.572985904195
1	809	1002.604449551951	18.104425973333
1	811	1005.44824966191	19.086727479633
1	825	1021.899379877536	27.343176003764
1	827	1022.890549215375	27.383607163817
1	835	1044.58237940117	36.943709806653
1	837	1046.580852527251	37.660206880396
1	839	1046.700425787955	35.65140764711
1	844	1060.279600421434	47.121514954022
1	846	1060.778223670774	29.44131508715
1	857	1064.276842779869	20.497301377222
1	865	1069.658401679603	14.457981133196
1	867	1069.708003920738	8.617041664461
1	881	1084.271531038521	22.783693668111
1	886	1089.494646275068	25.649569435225
1	891	1090.678039853245	23.174963888144
1	896	1095.837399015304	27.819449080729
1	898	1100.391654046309	28.815043172897
1	900	1104.015233267349	26.32768161288
1	902	1112.498320532459	32.302967267843
1	913	1117.688824302025	33.472548577442
1	915	1118.760228912848	32.617088588466
1	917	1119.378824988648	29.049214725666
1	919	1119.981677062294	28.967354094005
1	921	1120.743830799592	5.412207578774
1	923	1121.902880996094	6.402393485917
1	925	1122.914931400169	5.314090914904
1	930	1128.047497108568	0.830789469185
1	938	1137.94721185765	2.131125244373
1	946	1154.872877713803	18.028989854997
1	948	1155.867050786027	15.639482265728
1	950	1162.296476783522	13.877496484462
1	958	1180.037556867932	9.793494472163
1	963	1196.582223674403	16.873152456552
1	968	1209.748371186979	15.056244214335
1	973	1221.37667992229	22.034128452085
1	975	1221.970576354161	6.182233013416
1	980	1226.494499574037	2.554605169683
1	985	1233.928622792354	0.238685710177
1	990	1248.602522004431	3.479166717129
1	995	1253.925692033992	0.013174460803
1	1015	1275.142896441669	13.908302414781
1	1017	1276.934618127096	14.196075861667
1	1019	1278.904026495909	12.564574239684
1	1021	1283.593124252529	12.919205462457
1	1023	1284.725361572589	13.987489428643
1	1025	1284.781281335797	13.579346432828
1	1033	1288.900402366349	3.399515050419
1	1038	1298.533917366302	9.967612840444
1	1043	1310.397674056629	18.536481043113
1	1057	1319.768200941635	16.75408043953
1	1065	1324.666636068579	13.579648874252
1	1067	1325.719748907446	13.278817058607
1	1069	1326.20217494901	12.818493065542
1	1071	1327.064475792666	12.377429566365
1	1073	1327.88635579099	6.784131746798
1	1075	1331.056293933889	8.853306478789
1	1083	1340.746728610753	5.552267254171
1	1088	1349.224241492214	13.308276925876
1	1108	1365.137374613434	20.532381370702
1	1114	1369.185102715634	18.391705769722
1	1116	1371.578263808205	15.741589639107
1	1118	1388.681112985112	30.229006267394
1	1120	1395.795194584528	32.71020302384
1	1122	1412.402880614302	48.037055470642
1	1124	1422.662657932948	57.611726698336
1	1126	1429.037896059743	63.88610566014
