version 2
run Testbench_1-121-20170516-19:17:41-51348
attr configname Testbench_1
attr datetime 20170516-19:17:41
attr experiment Testbench_1
attr inifile omnetpp.ini
attr iterationvars $0=50
attr iterationvars2 "$0=50, $repetition=21"
attr measurement $0=50
attr network Toll_road
attr processid 51348
attr repetition 21
attr replication #21
attr resultdir results
attr runnumber 121
attr seedset 121
param **.numBooths 3
param **.queue[*].serviceTime exponential(5.11s)
param **.source.interArrivalTime exponential(5.854s)
param **.source.numJobs 1000

vector 0  Toll_road.queue[0]  jobsProcessed:vector  ETV
attr interpolationmode  none
attr source  queueingTime
attr title  "jobs processed, vector"
vector 1  Toll_road.sink  lifeTime:vector  ETV
attr interpolationmode  none
attr title  "lifetime of arrived jobs, vector"
attr unit  s
0	3	0.690949034368	0
0	16	24.882064293461	15.020900028213
0	21	29.028620867671	17.614861244283
0	29	35.087982988748	22.709429910679
0	31	50.678135755378	27.920409758165
0	36	55.189097309513	29.363216535663
0	38	55.283462528265	24.739941067331
0	40	56.372315870597	24.156401798616
0	57	66.332514494023	13.845130633503
0	59	67.86902327215	11.44161512534
0	64	72.149732255316	11.8585889939
0	75	80.957428473817	19.294069829449
0	89	89.989732512892	27.466852297892
0	91	93.677870955995	30.634759189218
0	96	100.664086754725	30.46323462862
0	101	108.655514318283	32.454402568983
0	109	113.932551708715	36.233729513422
0	111	118.796051726223	40.86874965426
0	113	118.889203396795	35.86987478521
0	115	130.932534622148	46.987553163306
0	117	133.376045840671	45.649274879268
0	119	135.109750028841	46.795974931582
0	121	137.896323653205	43.4565457798
0	126	141.280264303567	34.772509437276
0	131	151.185004251257	40.969395181128
0	133	158.417331007158	46.020073881498
0	135	158.708916049422	19.576923840458
0	137	159.164004509779	11.129201557453
0	143	166.391535163016	0
0	148	168.721686833006	0
0	153	169.167812226826	0
0	158	180.454010969079	0
0	162	183.955950339795	1.85670847096
0	168	190.22299873022	0
0	172	200.56205659318	9.961918239986
0	178	207.727061959032	0
0	185	231.953907797553	20.518973495355
0	187	232.685644885994	19.066500058789
0	195	242.910465200765	4.665339525363
0	197	244.417471385572	1.845830234036
0	202	249.098321908782	0.772558719366
0	207	256.153986602646	0.513040581777
0	218	272.439563899186	6.803930482161
0	226	278.762369559553	12.919411954432
0	228	278.864223537001	6.71258758517
0	230	280.031011553399	6.405858660768
0	235	287.014743915722	11.593685019798
0	244	312.073853788045	27.27398175564
0	246	327.925369099566	39.307060877422
0	248	329.172084996083	32.076655554686
1	17	24.882064293461	24.191115259093
1	22	29.028620867671	19.167456602423
1	30	35.087982988748	23.67422336536
1	32	50.678135755378	38.299582677309
1	37	55.189097309513	32.4313713123
1	39	55.283462528265	29.457581754415
1	41	56.372315870597	25.828794409663
1	58	66.332514494023	34.116600422042
1	60	67.86902327215	15.38163941163
1	65	72.149732255316	15.722324108506
1	76	80.957428473817	20.666285212401
1	90	89.989732512892	28.326373868524
1	92	93.677870955995	31.154990740995
1	97	100.664086754725	37.620974987948
1	102	108.655514318283	38.454662192178
1	110	113.932551708715	37.731439959415
1	112	118.796051726223	41.09722953093
1	114	118.889203396795	40.961901324832
1	116	130.932534622148	47.913206010563
1	118	133.376045840671	49.431064381829
1	120	135.109750028841	47.382979067438
1	122	137.896323653205	49.582548555946
1	127	141.280264303567	46.840486430162
1	132	151.185004251257	44.677249384966
1	134	158.417331007158	48.201721937029
1	136	158.708916049422	46.311658923762
1	138	159.164004509779	20.032012300815
1	140	163.773207046835	15.738404094509
1	145	167.545009152462	1.153473989446
1	150	169.107277612174	0.385590779168
1	155	170.227583487557	1.059771260731
1	163	183.955950339795	3.501939370716
1	165	187.533565973588	5.434324104753
1	173	200.56205659318	10.33905786296
1	175	204.09946954896	13.499331195766
1	186	231.953907797553	24.226845838521
1	188	232.685644885994	21.250710583796
1	196	242.910465200765	29.29132037356
1	198	244.417471385572	6.17234571017
1	203	249.098321908782	6.526680757246
1	208	256.153986602646	7.82822341323
1	219	272.439563899186	16.798617878317
1	227	278.762369559553	13.126736142528
1	229	278.864223537001	13.02126593188
1	231	280.031011553399	7.879375601568
1	236	287.014743915722	13.389591023091
1	245	312.073853788045	36.652794892121
1	247	327.925369099566	43.125497067161
1	249	329.172084996083	40.553776773939
1	251	330.890930589414	33.795501148017
