version 2
run Testbench_1-1018-20170516-19:20:57-58820
attr configname Testbench_1
attr datetime 20170516-19:20:57
attr experiment Testbench_1
attr inifile omnetpp.ini
attr iterationvars $0=275
attr iterationvars2 "$0=275, $repetition=18"
attr measurement $0=275
attr network Toll_road
attr processid 58820
attr repetition 18
attr replication #18
attr resultdir results
attr runnumber 1018
attr seedset 1018
param **.numBooths 3
param **.queue[*].serviceTime exponential(5.11s)
param **.source.interArrivalTime exponential(5.854s)
param **.source.numJobs 1000

vector 0  Toll_road.queue[0]  jobsProcessed:vector  ETV
attr interpolationmode  none
attr source  queueingTime
attr title  "jobs processed, vector"
vector 1  Toll_road.sink  lifeTime:vector  ETV
attr interpolationmode  none
attr title  "lifetime of arrived jobs, vector"
attr unit  s
0	3	0.494275417364	0
0	22	22.769709811888	21.934156015243
0	24	23.587126104508	14.597134893941
0	29	26.827910773989	14.016009055005
0	34	30.512943945003	16.702187617226
0	39	38.671859713033	20.807611091133
0	44	40.699320503974	20.136382652877
0	49	42.019952186692	16.825116658778
0	51	44.586991986863	14.153175135304
0	62	50.347847484561	13.720926048495
0	64	52.114255372928	12.213556606821
0	66	54.779249250089	13.05887408119
0	68	56.536111727559	11.582348334823
0	70	56.983291527991	10.900532796164
0	75	68.827775803918	19.954241231487
0	80	76.573089633163	18.956106687182
0	82	78.047504010949	3.495452118462
0	87	85.583121447189	1.496473899113
0	93	100.099568594948	0
0	97	105.628228271077	3.865736025695
0	103	113.713044331196	0
0	107	114.238451230419	0.037415610108
0	113	124.17175795525	0
0	118	132.721243467968	0
0	128	138.30536112274	2.793731880503
0	133	145.870146141574	9.749221018587
0	135	145.921706741922	8.465788500655
0	143	153.578738515189	14.358660532837
0	157	166.09037554275	14.955585638787
0	159	167.158993905439	15.687069996681
0	164	173.412387009036	18.066282560153
0	178	184.758014197571	24.765551215132
0	180	193.487816043241	32.616405107144
0	191	199.178727876367	37.178776262257
0	199	216.183149655549	47.600524415891
0	201	217.334377100436	39.66607389964
0	203	231.020667695972	52.383345561116
0	208	236.970871665332	56.442303170621
0	210	242.390833331119	60.608740730126
0	215	243.064232256291	49.552145444466
0	226	252.036415209173	58.302960092085
0	231	253.187722750278	57.947497391156
0	236	254.470827661407	48.30031904343
0	238	257.980829536725	43.799484549131
0	243	259.648769732258	26.965987642991
0	245	261.277770085519	18.505938164501
0	247	261.345927991923	16.645702978376
0	249	262.064300169129	15.082921127438
0	266	267.780253288849	18.100734752316
0	274	273.191898884119	21.065437093265
0	276	274.843085666685	21.626116516226
0	281	287.211257042283	27.610327202353
0	286	294.815585497502	32.136997343108
0	291	304.36784849966	41.430102748444
0	293	307.108402662443	43.829017972212
0	298	310.07440061582	45.646012280838
0	303	313.95093315724	48.662380007088
0	320	321.292534037544	50.563370380183
0	325	325.685948834597	54.688044045301
0	330	337.254169322095	51.744228328497
0	335	338.910126633947	46.407986953261
0	349	346.113385646108	47.668659145634
0	351	346.192035326663	36.889994175586
0	353	347.476374310221	37.371922609661
0	361	351.609221586158	37.503666042957
0	366	356.01129979935	38.693928053842
0	368	356.804384649075	38.888380933509
0	382	368.604713568734	48.375039578419
0	399	396.751968769384	75.576832029136
0	401	397.039535426383	74.987395192155
0	409	403.270016069924	66.896678191141
0	411	407.945457695969	69.145089635123
0	416	409.178668047192	67.642763763977
0	418	409.78947858085	68.214099938149
0	420	415.911435751096	71.311486089746
0	422	421.680877426268	75.911956788376
0	424	422.101729079577	72.492216351077
0	426	422.194408210738	70.804444650786
0	428	438.251252421367	84.390283484441
0	442	466.819150634178	109.09683957827
0	444	469.078142751876	109.87213221456
0	446	477.585023827902	116.51752689107
0	448	477.695356233084	114.67086362336
0	453	481.59892556647	111.31184690068
0	455	481.754094219362	109.05181961511
0	457	484.643195617508	108.76778062201
0	465	500.033183797753	124.10430586143
0	467	501.618757352409	123.9332733186
0	472	503.795714646886	105.21841661752
0	474	504.70619582608	104.65625145311
0	485	526.536997091488	117.48856432592
0	487	530.520923338636	87.168299446447
0	489	539.791260052732	77.804070107666
0	491	543.643240670361	80.754259248328
0	496	548.120889883125	82.268415373967
0	498	550.908843295664	69.51456806373
0	500	553.615659740036	68.324987323997
0	514	568.66951621222	77.283822717449
0	516	570.777691736685	67.140391174386
0	518	572.992324395501	62.171479068752
0	520	574.065190060097	61.759158672481
0	528	578.698414264229	53.130072483371
0	530	579.849167843479	32.551572876613
0	532	582.480074155538	22.51349543894
0	537	596.86786181528	36.480004929288
0	539	601.458981324162	35.957868645576
0	550	607.726651313409	39.234575247705
0	552	610.684161065911	32.794139816535
0	566	620.956396312146	42.383816463863
0	568	623.069199622677	37.719613260029
0	576	643.307296610191	40.569005145467
0	584	654.405864112483	51.010450420943
0	595	668.277942490814	62.119480267746
0	600	676.654707187269	65.780221939198
0	608	684.806149302643	69.927122142091
0	610	693.973436520909	78.718510951371
0	612	696.104710070047	80.557430765107
0	614	698.34238872217	69.386731379893
0	616	699.807246975701	69.982222971333
0	618	703.242077595184	57.27024205731
0	620	703.968081685896	54.169558955848
0	640	725.828348993966	70.06537043045
0	642	726.494397555059	67.888441842651
0	644	727.078736067637	64.269390774808
0	646	731.049863728401	59.565023292582
0	648	735.875787249887	57.027217550948
0	650	736.843063517881	57.909717125155
0	652	739.988419547307	35.583052497574
0	654	752.032897063786	47.17145055362
0	659	756.060585886266	51.10158167658
0	667	757.193267298757	49.746964818301
0	669	758.294288758197	37.283001818124
0	680	773.839853120327	48.479644613027
0	688	778.08855684875	24.934297799108
0	690	779.057771671207	22.628323079369
0	695	785.928325844025	29.333794017999
0	697	787.062124933821	27.46591560268
0	702	791.34820602045	31.327719353145
0	707	792.980089007528	30.935864544358
0	709	794.631870438416	19.128784063076
0	717	797.991090451614	20.052304736041
0	719	798.689135662882	15.634156342513
0	727	817.834870946797	28.886437533837
0	732	821.24877615986	28.392175434831
0	743	836.643768848096	39.881058347987
0	754	843.810194935881	46.824089178495
0	759	860.121496256082	50.265905692177
0	761	863.092691765772	52.836521830654
0	763	868.806277948828	50.723271906715
0	765	872.21676303446	45.500535662365
0	770	877.00886978722	45.148586104272
0	781	894.057026246868	59.549334532554
0	783	896.642274509219	59.940085747961
0	785	901.802618698396	64.322148466591
0	787	902.454837334748	64.308308416718
0	792	903.59194299992	51.868861284427
0	794	909.144187871468	35.019034242708
0	796	909.933297813025	24.635130160274
0	798	911.140761355498	25.79422533541
0	806	923.082731705907	33.211208071724
0	814	926.209029384826	22.882946631654
0	816	927.383370043062	11.243138453793
0	818	929.230821918994	9.69858570942
0	820	936.783860596349	12.23079521626
0	825	948.357245616732	22.471411753013
0	830	960.048270896981	20.736228384591
0	832	960.65077555477	11.260328828093
0	840	966.973333447748	2.669837822881
0	842	974.252559696578	9.254753187706
0	847	975.629776042173	0.304943463804
0	853	994.264240237381	0
0	857	997.863596324426	3.011873030576
0	862	999.819516222612	1.118480104339
0	868	1002.398639004867	0
0	873	1018.519786347749	0
0	878	1023.399173154401	0
0	883	1034.496739906479	0
0	890	1046.080151385867	8.546747077365
0	892	1050.458438351439	10.635495369508
0	897	1055.642945847161	2.324234385181
0	902	1057.677928125771	0.618065426648
0	907	1073.395269591089	6.954355221676
0	913	1073.563778686514	0
0	917	1077.192270887747	1.982685343679
0	923	1088.651716488825	0
0	928	1095.795739903615	0
0	933	1108.687511426614	0
0	938	1118.259434917009	0
0	945	1129.475119339774	9.050794942993
0	950	1132.592253319186	3.941358058068
0	952	1134.484256810268	4.244907356147
0	958	1138.758804862025	0
0	962	1140.881469470668	1.014316855652
0	967	1144.090243809023	0.955249120705
0	972	1145.493766132071	1.369967537645
0	977	1145.882681581301	0.205309712222
0	994	1166.767011425244	17.672489749514
0	996	1168.109125608664	14.318086565434
0	998	1172.906076996666	18.074492903528
0	1000	1174.964650116076	19.852977841991
0	1002	1177.071482178179	15.030090861449
0	1007	1181.424059671048	1.897811512355
0	1013	1191.783197409021	0
0	1018	1198.256681484994	0
0	1022	1203.605977478652	1.811119802418
0	1028	1205.600983092072	0
0	1033	1219.612982319855	0
0	1038	1241.409491391289	0
0	1045	1247.807566347805	3.744935102037
0	1062	1259.47600392378	14.727081188109
0	1067	1272.583644269913	24.138537635392
0	1069	1277.31819443832	28.028259115983
0	1074	1282.748886667685	32.824276611731
0	1076	1285.03889387307	30.327658925821
0	1078	1287.615550366488	31.054406892154
0	1080	1287.997115820352	20.04560734052
0	1082	1291.757946628249	13.946867351024
0	1087	1294.561719388955	1.608770052951
0	1092	1295.312820172063	0.247331624524
0	1103	1297.890762896288	2.469333690799
0	1114	1303.510187656974	6.991338625818
0	1119	1307.059056669727	10.237447830931
0	1127	1321.411016045006	22.515396625616
0	1132	1330.941615127216	28.185448994922
0	1134	1335.289069508954	32.04945566881
0	1136	1335.675452356553	28.957026819021
0	1141	1348.669122859065	40.795981948416
0	1146	1352.043025468153	36.17938580974
0	1148	1352.385988070044	28.703999318881
0	1150	1353.872771545988	16.23770268664
0	1155	1361.274558522205	11.013201615821
0	1160	1361.949955676229	3.396730969274
0	1162	1366.608976742459	5.248329465602
0	1167	1371.459778541771	4.425807023124
0	1173	1397.389856826644	0
0	1178	1403.592605641209	0
0	1182	1412.618802581668	4.435732180679
0	1187	1422.784614304141	2.555140271391
0	1198	1428.631446149986	3.776355354352
0	1200	1429.327164886949	4.371698939842
0	1202	1430.390478145004	3.030059296667
0	1208	1450.11827187981	0
0	1213	1458.997750773306	0
0	1220	1465.53956816876	5.180173480971
0	1222	1466.34892899283	1.737313436633
0	1228	1489.113265997255	0
0	1233	1498.674574942726	0
0	1238	1513.614898816625	0
0	1242	1513.808862997504	0.007228945726
0	1250	1521.03371304601	3.32366245177
0	1255	1531.247262965693	10.792552417187
0	1260	1536.843938798796	6.224433804965
0	1265	1540.213685780349	6.746389248394
0	1267	1542.633177711273	5.605503255467
0	1275	1550.449783027592	7.323448175451
0	1277	1550.972445577548	5.563228129122
0	1285	1563.715797478414	9.032332579562
0	1287	1567.121846671246	3.418670185717
0	1293	1570.827601780438	0
0	1297	1573.702768902811	2.151273385668
0	1303	1581.585763666606	0
0	1308	1584.486293218241	0
0	1312	1589.956682756811	0.506316005177
0	1320	1592.824496540167	0.691504877867
0	1325	1602.552175304719	9.843990770136
0	1327	1603.030392936756	2.891572519554
0	1333	1610.497035725156	0
0	1338	1614.207404256418	0
0	1342	1618.861025716599	3.555199087651
0	1353	1631.638081082202	11.644548609634
0	1364	1643.672708875612	16.681378784161
0	1366	1643.80314265527	15.66706279351
0	1369	1670.879805803533	37.943039819642
0	1371	1670.918926928989	32.574888370196
0	1373	1674.212413361528	31.844837131381
1	23	22.769709811888	22.275434394524
1	25	23.587126104508	22.751572307863
1	30	26.827910773989	17.837919563422
1	35	30.512943945003	17.701042226019
1	40	38.671859713033	24.861103385256
1	45	40.699320503974	22.835071882074
1	50	42.019952186692	21.457014335595
1	52	44.586991986863	19.392156458949
1	63	50.347847484561	19.914030633002
1	65	52.114255372928	15.487333936862
1	67	54.779249250089	14.878550483982
1	69	56.536111727559	14.81573655866
1	71	56.983291527991	12.029528135255
1	76	68.827775803918	22.745017072091
1	81	76.573089633163	27.699555060732
1	83	78.047504010949	20.430521064968
1	88	85.583121447189	11.031069554702
1	90	94.810354499379	10.723706951303
1	98	105.628228271077	5.528659676129
1	100	109.400273795575	7.637781550193
1	108	114.238451230419	0.525406899223
1	110	114.468613623967	0.267578003656
1	115	125.224142129278	1.052384174028
1	129	138.30536112274	5.584117654772
1	134	145.870146141574	10.358516899337
1	136	145.921706741922	9.800781618935
1	144	153.578738515189	16.122820273922
1	158	166.09037554275	26.870297560398
1	160	167.158993905439	16.024204001476
1	165	173.412387009036	21.940463100278
1	179	184.758014197571	29.411909748688
1	181	193.487816043241	33.495353060802
1	192	199.178727876367	38.30731694027
1	200	216.183149655549	54.183198041439
1	202	217.334377100436	48.751751860778
1	204	231.020667695972	53.352364495176
1	209	236.970871665332	58.333549530476
1	211	242.390833331119	61.862264836408
1	216	243.064232256291	61.282139655298
1	227	252.036415209173	58.524328397348
1	232	253.187722750278	59.45426763319
1	237	254.470827661407	59.230602302285
1	239	257.980829536725	51.810320918748
1	244	259.648769732258	45.467424744664
1	246	261.277770085519	28.594987996252
1	248	261.345927991923	18.574096070905
1	250	262.064300169129	17.364075155582
1	267	267.780253288849	20.798874247158
1	275	273.191898884119	23.512380347586
1	277	274.843085666685	22.716623875831
1	282	287.211257042283	33.994287891824
1	287	294.815585497502	35.214655657572
1	292	304.36784849966	41.689260345266
1	294	307.108402662443	44.170656911227
1	299	310.07440061582	46.795015925589
1	304	313.95093315724	49.522544822258
1	321	321.292534037544	56.003980887392
1	326	325.685948834597	54.956785177236
1	331	337.254169322095	66.256264532799
1	336	338.910126633947	53.400185640349
1	350	346.113385646108	53.611245965422
1	352	346.192035326663	47.747308826189
1	354	347.476374310221	38.174333159144
1	362	351.609221586158	41.504769885598
1	367	356.01129979935	41.905744256149
1	369	356.804384649075	39.487012903567
1	383	368.604713568734	50.688709853168
1	400	396.751968769384	76.522294779069
1	402	397.039535426383	75.864398686135
1	410	403.270016069924	81.217875835696
1	412	407.945457695969	71.572119817186
1	417	409.178668047192	70.378299986346
1	419	409.78947858085	68.253574297635
1	421	415.911435751096	74.336057108395
1	423	421.680877426268	77.080927764918
1	425	422.101729079577	76.332808441685
1	427	422.194408210738	72.584895482238
1	429	438.251252421367	86.861288861415
1	443	466.819150634178	112.95818169725
1	445	469.078142751876	111.35583169597
1	447	477.585023827902	118.37901329059
1	449	477.695356233084	116.62785929625
1	454	481.59892556647	118.57443295675
1	456	481.754094219362	111.46701555357
1	458	484.643195617508	111.94092101326
1	466	500.033183797753	124.15776880225
1	468	501.618757352409	125.68987941608
1	473	503.795714646886	126.11023061308
1	475	504.70619582608	106.12889779671
1	486	526.536997091488	126.48705271852
1	488	530.520923338636	121.47249057307
1	490	539.791260052732	96.438636160543
1	492	543.643240670361	81.656050725295
1	497	548.120889883125	85.231908461092
1	499	550.908843295664	85.056368786506
1	501	553.615659740036	72.221384508102
1	515	568.66951621222	83.378843796181
1	517	570.777691736685	79.391998241914
1	519	572.992324395501	69.355023833202
1	521	574.065190060097	63.244344733348
1	529	578.698414264229	66.392382876613
1	531	579.849167843479	54.280826062621
1	533	582.480074155538	35.182479188672
1	538	596.86786181528	36.901283098682
1	540	601.458981324162	41.07112443817
1	551	607.726651313409	42.225538634823
1	553	610.684161065911	42.192085000207
1	567	620.956396312146	43.06637506277
1	569	623.069199622677	44.496619774394
1	577	643.307296610191	57.957710247543
1	585	654.405864112483	51.667572647759
1	596	668.277942490814	64.882528799274
1	601	676.654707187269	70.496244964201
1	609	684.806149302643	73.931664054572
1	611	693.973436520909	79.094409360357
1	613	696.104710070047	80.849784500509
1	615	698.34238872217	82.79510941723
1	617	699.807246975701	70.851589633424
1	619	703.242077595184	73.417053590816
1	621	703.968081685896	57.996246148022
1	641	725.828348993966	76.029826263918
1	643	726.494397555059	70.731418991543
1	645	727.078736067637	68.472780355229
1	647	731.049863728401	68.240518435572
1	649	735.875787249887	64.390946814068
1	651	736.843063517881	57.994493818942
1	653	739.988419547307	61.055073154581
1	655	752.032897063786	47.627530014053
1	660	756.060585886266	51.1991393761
1	668	757.193267298757	52.234263089071
1	670	758.294288758197	50.847986277741
1	681	773.839853120327	52.828566180254
1	689	778.08855684875	52.72834834145
1	691	779.057771671207	25.903512621565
1	696	785.928325844025	29.498877252187
1	698	787.062124933821	30.467593107795
1	703	791.34820602045	31.751996689309
1	708	792.980089007528	32.959602340223
1	710	794.631870438416	32.587645975246
1	718	797.991090451614	22.488004076274
1	720	798.689135662882	20.750349947309
1	728	817.834870946797	34.779891626428
1	733	821.24877615986	32.3003427469
1	744	836.643768848096	43.787168123067
1	755	843.810194935881	47.047484435772
1	760	860.121496256082	63.135390498696
1	762	863.092691765772	53.237101201867
1	764	868.806277948828	58.55010801371
1	766	872.21676303446	54.133756992347
1	771	877.00886978722	50.292642415125
1	782	894.057026246868	62.19674256392
1	784	896.642274509219	62.134582794905
1	786	901.802618698396	65.100429937138
1	788	902.454837334748	64.974367102943
1	793	903.59194299992	65.44541408189
1	795	909.144187871468	57.421106155975
1	797	909.933297813025	35.808144184265
1	799	911.140761355498	25.842593702747
1	807	923.082731705907	37.736195685819
1	815	926.209029384826	36.337505750643
1	817	927.383370043062	24.05728728989
1	819	929.230821918994	13.090590329725
1	821	936.783860596349	17.251624386775
1	826	948.357245616732	23.804180236643
1	831	960.048270896981	34.162437033262
1	833	960.65077555477	21.33873304238
1	841	966.973333447748	17.582886721071
1	843	974.252559696578	9.949064071711
1	848	975.629776042173	10.631969533301
1	850	980.147800057948	4.822967479579
1	858	997.863596324426	3.599356087045
1	863	999.819516222612	4.967792928762
1	865	1001.217113156539	2.516077038266
1	870	1014.409483322802	12.010844317935
1	875	1019.481650717032	0.961864369283
1	880	1028.005366633156	4.606193478755
1	891	1046.080151385867	11.583411479388
1	893	1050.458438351439	12.925034042937
1	898	1055.642945847161	15.82000286523
1	903	1057.677928125771	4.359216663791
1	908	1073.395269591089	16.335406891966
1	910	1073.524124290257	7.083209920844
1	918	1077.192270887747	3.628492201233
1	920	1080.601845183619	5.392259639551
1	925	1090.945764210966	2.294047722141
1	930	1096.420397186143	0.624657282528
1	935	1112.241158783563	3.553647356949
1	946	1129.475119339774	11.215684422765
1	951	1132.592253319186	12.167928922405
1	953	1134.484256810268	5.83336154915
1	955	1134.904247381511	4.66489792739
1	963	1140.881469470668	2.122664608643
1	968	1144.090243809023	4.223091194007
1	973	1145.493766132071	2.358771443753
1	978	1145.882681581301	1.758882986875
1	995	1166.767011425244	21.089639556165
1	997	1168.109125608664	19.014603932934
1	999	1172.906076996666	19.115037953436
1	1001	1174.964650116076	20.133066022938
1	1003	1177.071482178179	21.959809904094
1	1008	1181.424059671048	19.382668354318
1	1010	1183.657138055139	4.130889896446
1	1015	1194.563627328817	2.780429919796
1	1023	1203.605977478652	5.349295993658
1	1025	1204.680018644092	2.885160967858
1	1030	1208.664528698843	3.063545606771
1	1035	1225.216398606416	5.603416286561
1	1046	1247.807566347805	6.398074956516
1	1063	1259.47600392378	15.413372678012
1	1068	1272.583644269913	27.834721534242
1	1070	1277.31819443832	28.873087803799
1	1075	1282.748886667685	33.458951345348
1	1077	1285.03889387307	35.114283817116
1	1079	1287.615550366488	32.904315419239
1	1081	1287.997115820352	31.435972346018
1	1083	1291.757946628249	23.806438148417
1	1088	1294.561719388955	16.75064011173
1	1093	1295.312820172063	2.359870836059
1	1104	1297.890762896288	2.825274348749
1	1115	1303.510187656974	8.088758451485
1	1120	1307.059056669727	10.540207638571
1	1128	1321.411016045006	24.58940720621
1	1133	1330.941615127216	32.045995707826
1	1135	1335.289069508954	32.53290337666
1	1137	1335.675452356553	32.435838516409
1	1142	1348.669122859065	41.950697321533
1	1147	1352.043025468153	44.169884557504
1	1149	1352.385988070044	36.522348411631
1	1151	1353.872771545988	30.190782794825
1	1156	1361.274558522205	23.639489662857
1	1161	1361.949955676229	11.688598769845
1	1163	1366.608976742459	8.055752035504
1	1168	1371.459778541771	10.099131264914
1	1170	1379.678602991633	12.644631472986
1	1175	1401.176635626274	3.78677879963
1	1183	1412.618802581668	9.026196940459
1	1188	1422.784614304141	14.601543903152
1	1199	1428.631446149986	8.401972117236
1	1201	1429.327164886949	4.472074091315
1	1203	1430.390478145004	5.435012197897
1	1205	1432.367517718584	5.007098870247
1	1210	1458.497794068336	8.379522188526
1	1221	1465.53956816876	6.541817395454
1	1223	1466.34892899283	5.989534305041
1	1225	1479.28059042482	14.668974868623
1	1230	1491.047885914054	1.934619916799
1	1235	1502.015209739907	3.340634797181
1	1243	1513.808862997504	0.193964180879
1	1251	1521.03371304601	7.232078994232
1	1256	1531.247262965693	13.537212371453
1	1261	1536.843938798796	16.38922825029
1	1266	1540.213685780349	9.594180786518
1	1268	1542.633177711273	9.165881179318
1	1276	1550.449783027592	13.422108571786
1	1278	1550.972445577548	7.846110725407
1	1286	1563.715797478414	18.306580029988
1	1288	1567.121846671246	12.438381772394
1	1290	1570.079855639974	6.376679154445
1	1298	1573.702768902811	2.875167122373
1	1300	1580.514869708168	8.963374191025
1	1305	1582.305637040352	0.719873373746
1	1313	1589.956682756811	5.47038953857
1	1321	1592.824496540167	3.374129788533
1	1326	1602.552175304719	10.419183642419
1	1328	1603.030392936756	10.322208402173
1	1330	1603.03652420463	2.897703787428
1	1335	1610.971820373669	0.474784648513
1	1343	1618.861025716599	4.653621460181
1	1354	1631.638081082202	16.332254453254
1	1365	1643.672708875612	23.679176403044
1	1367	1643.80314265527	16.811812563819
1	1370	1670.879805803533	42.743725941773
1	1372	1670.918926928989	37.982160945098
1	1374	1674.212413361528	35.868374802735
1	1376	1677.875669476219	35.508093246072
