version 2
run Testbench_1-762-20170516-19:19:53-44940
attr configname Testbench_1
attr datetime 20170516-19:19:53
attr experiment Testbench_1
attr inifile omnetpp.ini
attr iterationvars $0=200
attr iterationvars2 "$0=200, $repetition=62"
attr measurement $0=200
attr network Toll_road
attr processid 44940
attr repetition 62
attr replication #62
attr resultdir results
attr runnumber 762
attr seedset 762
param **.numBooths 3
param **.queue[*].serviceTime exponential(5.11s)
param **.source.interArrivalTime exponential(5.854s)
param **.source.numJobs 1000

vector 0  Toll_road.queue[0]  jobsProcessed:vector  ETV
attr interpolationmode  none
attr source  queueingTime
attr title  "jobs processed, vector"
vector 1  Toll_road.sink  lifeTime:vector  ETV
attr interpolationmode  none
attr title  "lifetime of arrived jobs, vector"
attr unit  s
0	3	6.671375138505	0
0	8	13.614046894899	0
0	13	18.851264079871	0
0	18	19.733837103731	0
0	23	24.263513724835	0
0	28	29.606023071085	0
0	38	37.287975032032	5.825165461047
0	46	47.729660941718	15.187692983871
0	54	54.924736137026	19.314458735934
0	59	63.337945244145	23.554872392173
0	64	65.391264253522	23.189124782232
0	66	67.409292939299	17.193876469509
0	68	68.668439415727	13.933909170443
0	73	69.848818773321	12.132046826492
0	75	72.656938989261	8.849025252139
0	80	78.331311516366	8.842155487035
0	85	83.027955281638	10.001213015714
0	90	90.48270189097	11.099167152507
0	95	95.996523606159	6.732206634151
0	97	96.385711669164	2.219480841431
0	108	99.964813903381	3.471770727751
0	110	102.754203508555	4.744175910386
0	112	106.395958675188	7.503447253384
0	117	111.653921048303	3.588437516742
0	137	133.701322325707	17.839549620144
0	139	135.981163614168	19.851766956975
0	144	143.718728284135	26.423851139354
0	149	146.329389337148	27.447542011782
0	154	148.759475130657	19.053765991859
0	156	149.782459007179	18.242352654162
0	161	152.31569895388	9.426802766583
0	166	154.457582952904	10.647800392481
0	168	154.768735201584	6.696239423909
0	173	158.313272936008	6.186204534032
0	175	164.518115619716	10.937244126614
0	177	165.130277829804	7.12444685854
0	182	167.167602738259	0.227694856619
0	187	178.847502679936	7.704964056271
0	193	198.09990010522	0
0	198	204.250936480693	0
0	205	208.224427987331	2.208408062727
0	210	217.310404762272	11.235828900596
0	215	220.608017057129	11.710800422279
0	217	224.208130247807	6.737242033445
0	222	230.456362705116	0.057071840507
0	227	237.766128301122	4.459042305871
0	233	247.745923878677	0
0	238	262.767557219761	0
0	248	270.686524772784	2.924096663941
0	253	277.612992267513	8.599883106022
0	255	278.964537431563	9.582197190888
0	257	282.887744231052	9.308372228713
0	263	301.998274505839	0
0	270	309.194630193983	5.193606930568
0	272	311.058705005491	4.235081635066
0	277	311.872668193654	0.58817883092
0	291	327.765129197707	15.088267102603
0	293	328.692257086057	15.004225505583
0	295	332.786952701343	7.29443974583
0	315	356.256090206064	29.356457830399
0	317	362.518905055394	22.755981753574
0	319	364.953269643589	22.465123991889
0	321	367.067704092452	19.615888457472
0	323	368.572124757565	18.641609291234
0	331	380.312451723122	26.160995980774
0	342	390.41308535724	34.41322372119
0	347	395.120112748307	21.941374550975
0	352	398.656042935997	20.993478927442
0	366	417.724449628934	34.998809520938
0	371	424.549802771164	40.411269083309
0	379	449.655773236037	64.196205997613
0	381	450.634466533062	56.691112199194
0	404	471.978338092535	73.991894572769
0	406	474.140424390907	68.806999239226
0	408	474.81033864017	66.186966714337
0	413	476.092334418989	64.898965000276
0	427	498.037616543525	83.130657407757
0	435	502.255720352453	78.932897751421
0	443	511.866332658855	86.994040467602
0	457	519.145086049276	89.192783403274
0	465	529.557537855834	78.071198885363
0	467	536.337042124068	84.581590987499
0	469	537.200165940359	76.9656872106
0	474	539.818813840381	79.47023040508
0	476	545.77998167439	83.110963806859
0	478	550.493306682696	85.069509195825
0	480	551.44265872344	80.980529704512
0	482	551.600612126129	76.17477566222
0	484	564.452946024818	80.709593386134
0	489	567.189779766677	82.260395775037
0	491	574.591296146225	84.361521019564
0	493	575.314688576471	81.364429545782
0	501	579.801903997563	80.730212002295
0	512	584.611645234758	84.098524875279
0	517	594.362425549058	88.786021024243
0	519	598.990409464715	92.96211733679
0	521	599.078569723318	85.602550445693
0	523	600.676787847292	86.951415942705
0	528	601.795827643639	87.384172140108
0	536	618.849216664737	100.13844819874
0	541	620.468540963975	98.295619852594
0	543	626.494528472429	100.53262388792
0	548	635.633507199942	96.171369278908
0	550	639.998922031803	75.171852732205
0	552	642.0761823921	62.858675825972
0	563	658.154847657498	78.399558994817
0	568	660.685292786291	79.470401592165
0	573	661.154501934805	79.743128076059
0	578	663.090758906	81.238956591214
0	580	663.604615407312	70.714304560745
0	585	664.316321041712	63.307791714197
0	590	670.502944094586	66.618247012648
0	598	674.391817113129	60.527485209849
0	600	679.706308522576	59.503295891126
0	605	688.869590404512	59.945366941643
0	616	701.131029788488	56.754420175172
0	618	703.030573046748	52.135598945145
0	623	704.096632376208	46.137868960533
0	625	704.873263152332	44.188018298236
0	627	710.233899559797	49.360595347721
0	629	714.099576759716	51.039911219637
0	631	714.801253782	50.584225099647
0	633	725.040310313127	55.335982003605
0	635	727.655872750987	56.889348776189
0	643	739.631164887903	66.207587551386
0	645	746.286655781169	62.024757019527
0	650	750.387699396279	58.183913521126
0	655	752.531116231243	59.247948744833
0	660	761.070378021591	65.82435465179
0	677	773.576403433123	69.819871007352
0	682	775.753872511072	47.646496353707
0	687	782.431248878548	43.976044740073
0	698	795.148172558234	47.864157932931
0	700	795.47942367089	43.281786811704
0	702	804.655285688599	51.079593664902
0	704	806.294594100332	44.252476660932
0	706	807.606430116142	43.969922812298
0	708	817.504593962884	48.390493620129
0	710	817.956430871407	46.25078242667
0	712	822.801522093444	49.983534046216
0	714	823.479911818926	48.381239007251
0	722	824.532304556468	48.566002806852
0	724	826.633733832503	44.050670042617
0	726	826.664879773793	39.449310089043
0	728	830.683502689291	42.371952957034
0	730	839.440234708065	15.269166090832
0	738	844.754209565602	20.512160682343
0	743	850.432494202791	10.656792032682
0	745	854.188785378919	12.534919164175
0	747	857.666869148181	11.083477753374
0	752	861.890283380291	1.201090457034
0	757	873.071781079238	3.289296572327
0	763	879.408543484206	0
0	773	886.024407346773	6.07068086179
0	778	892.303360220192	10.08432406315
0	780	892.859807628188	7.725274770094
0	797	918.219142806818	27.537282749763
0	805	922.988625221414	26.00340929648
0	807	927.035883136626	21.983645324108
0	824	935.272397265615	29.654024122737
0	838	956.857044500378	50.859082189688
0	840	958.490308282578	43.739260963669
0	842	959.759674920093	40.75703436423
0	844	959.770624690579	38.864868753988
0	855	962.725016064961	34.615362215399
0	860	973.29288143018	42.304668154991
0	862	978.132389729001	47.090887630233
0	867	978.462435138396	47.291169094405
0	881	1005.064591929441	72.691363415223
0	883	1006.247366222045	65.527872368038
0	891	1016.878626790368	74.014621255797
0	896	1032.908395731261	82.240564442082
0	898	1038.083622384502	84.293159172902
0	903	1048.969513759804	87.938645291315
0	908	1055.802112282577	94.646258986558
0	916	1060.350762369856	98.898341014331
0	918	1065.214361055509	95.644650443177
0	923	1072.639355348364	94.302997960776
0	925	1072.80439508194	85.325074474703
0	927	1074.595131115626	77.095464881178
0	929	1078.598744595588	78.9143031069
0	931	1083.414982718531	81.600626761889
0	939	1086.992044795163	77.947413777968
0	944	1090.409204344676	74.589478565846
0	946	1093.309919777323	62.055519892519
0	948	1093.56672225774	48.132033882493
0	950	1093.811380766634	42.958504669757
0	958	1096.974209204299	39.893091028102
0	963	1108.630770413314	49.273362753641
0	974	1115.136683281162	43.189918150704
0	976	1119.714751507209	35.846548088764
0	981	1124.37849215803	38.652282765907
0	983	1126.284856278621	37.794668559337
0	986	1128.870616724018	34.639715337034
0	988	1132.035934319297	36.915128921999
0	990	1133.541768438085	30.684466565545
0	992	1137.552982675981	28.422457291737
0	994	1138.962917315252	29.32069064442
0	996	1142.524342899827	27.418550422586
0	998	1143.245547004944	20.203230573273
1	5	9.524944350164	2.853569211659
1	10	14.210058707778	0.596011812879
1	15	19.345449814718	0.494185734847
1	20	23.663640107832	3.929803004101
1	25	27.372737308768	3.109223583933
1	39	37.287975032032	7.681951960947
1	47	47.729660941718	16.266851370733
1	55	54.924736137026	22.382768179179
1	60	63.337945244145	27.727667843053
1	65	65.391264253522	25.60819140155
1	67	67.409292939299	25.207153468009
1	69	68.668439415727	18.453022945937
1	74	69.848818773321	15.114288528037
1	76	72.656938989261	14.940167042432
1	81	78.331311516366	14.523397779244
1	86	83.027955281638	13.538799252307
1	91	90.48270189097	17.455959625046
1	96	95.996523606159	16.612988867696
1	98	96.385711669164	7.121394697156
1	109	99.964813903381	5.798583075648
1	111	102.754203508555	6.261160332925
1	113	106.395958675188	8.385931077019
1	118	111.653921048303	12.761409626499
1	138	133.701322325707	25.635838794146
1	140	135.981163614168	20.119390908605
1	145	143.718728284135	27.589331626942
1	150	146.329389337148	29.034512192367
1	155	148.759475130657	29.877627805291
1	157	149.782459007179	20.076749868381
1	162	152.31569895388	20.775592600863
1	167	154.457582952904	11.568686765607
1	169	154.768735201584	10.958952641161
1	174	158.313272936008	10.240777158333
1	176	164.518115619716	12.39104721774
1	178	165.130277829804	11.549406336702
1	183	167.167602738259	9.161771766995
1	188	178.847502679936	11.907594798296
1	190	180.719727942016	9.577189318351
1	195	203.28279478666	5.18289468144
1	206	208.224427987331	3.973491506638
1	211	217.310404762272	11.294384837668
1	216	220.608017057129	14.533441195453
1	218	224.208130247807	15.310913612957
1	223	230.456362705116	12.985474490754
1	228	237.766128301122	7.366837436513
1	230	245.284820668861	11.97773467361
1	235	249.336417924119	1.590494045442
1	249	270.686524772784	7.918967553023
1	254	277.612992267513	9.85056415867
1	256	278.964537431563	9.951428270072
1	258	282.887744231052	13.505403990377
1	260	291.928070890443	18.348698888104
1	271	309.194630193983	7.196355688144
1	273	311.058705005491	7.057681742076
1	278	311.872668193654	5.049044823229
1	292	327.765129197707	16.480639834973
1	294	328.692257086057	16.015394990953
1	296	332.786952701343	19.098921120869
1	316	356.256090206064	30.763577250551
1	318	362.518905055394	35.619272679729
1	320	364.953269643589	25.190346341769
1	322	367.067704092452	24.579558440752
1	324	368.572124757565	21.120309122585
1	332	380.312451723122	30.381936256791
1	343	390.41308535724	36.261629614892
1	348	395.120112748307	39.120251112257
1	353	398.656042935997	25.477304738665
1	367	417.724449628934	40.061885620379
1	372	424.549802771164	41.824162663168
1	380	449.655773236037	65.517239548182
1	382	450.634466533062	65.174899294638
1	405	471.978338092535	78.034983758667
1	407	474.140424390907	76.153980871141
1	409	474.81033864017	69.476913488489
1	414	476.092334418989	67.468962493156
1	428	498.037616543525	86.844247124812
1	436	502.255720352453	87.348761216685
1	444	511.866332658855	88.543510057823
1	458	519.145086049276	94.272793858023
1	466	529.557537855834	99.605235209832
1	468	536.337042124068	84.850703153597
1	470	537.200165940359	85.44471480379
1	475	539.818813840381	79.584335110622
1	477	545.77998167439	85.431398239089
1	479	550.493306682696	87.824288815165
1	481	551.44265872344	86.018861236569
1	483	551.600612126129	81.138483107201
1	485	564.452946024818	89.027109560909
1	490	567.189779766677	83.446427127993
1	492	574.591296146225	89.661912154585
1	494	575.314688576471	85.08491344981
1	502	579.801903997563	85.851644966874
1	513	584.611645234758	85.53995323949
1	518	594.362425549058	93.849305189579
1	520	598.990409464715	93.4140049399
1	522	599.078569723318	93.050277595393
1	524	600.676787847292	87.200768569667
1	529	601.795827643639	88.070455739052
1	537	618.849216664737	104.43756116121
1	542	620.468540963975	101.75777249798
1	544	626.494528472429	104.32160736105
1	549	635.633507199942	109.67160261543
1	551	639.998922031803	100.53678411077
1	553	642.0761823921	77.249113092502
1	564	658.154847657498	78.93734109137
1	569	660.685292786291	80.93000412361
1	574	661.154501934805	79.939610740679
1	579	663.090758906	81.679385047254
1	581	663.604615407312	81.752813092526
1	586	664.316321041712	71.426010195145
1	591	670.502944094586	69.494414767071
1	599	674.391817113129	70.507120031191
1	601	679.706308522576	65.841976619296
1	606	688.869590404512	68.666577773062
1	617	701.131029788488	72.206806325619
1	619	703.030573046748	58.653963433432
1	624	704.096632376208	53.201658274605
1	626	704.873263152332	46.914499736657
1	628	710.233899559797	49.548654705701
1	630	714.099576759716	53.22627254764
1	632	714.801253782	51.741588241921
1	634	725.040310313127	60.823281630774
1	636	727.655872750987	57.951544441465
1	644	739.631164887903	68.864640913105
1	646	746.286655781169	72.863078444652
1	651	750.387699396279	66.125800634637
1	656	752.531116231243	60.32733035609
1	661	761.070378021591	67.787210535181
1	678	773.576403433123	78.330380063322
1	683	775.753872511072	71.997340085301
1	688	782.431248878548	54.323872721183
1	699	795.148172558234	56.692968419759
1	701	795.47942367089	48.195409045587
1	703	804.655285688599	52.457648829413
1	705	806.294594100332	52.718902076635
1	707	807.606430116142	45.564312676742
1	709	817.504593962884	53.86808665904
1	711	817.956430871407	48.842330528652
1	713	822.801522093444	51.095873648707
1	715	823.479911818926	50.661923771698
1	723	824.532304556468	49.433631744793
1	725	826.633733832503	50.667432082887
1	727	826.664879773793	44.081815983907
1	729	830.683502689291	43.467933004541
1	731	839.440234708065	51.128684975808
1	739	844.754209565602	20.583140948369
1	744	850.432494202791	26.190445319532
1	746	854.188785378919	14.41308320881
1	748	857.666869148181	16.013002933437
1	753	861.890283380291	15.306891985484
1	758	873.071781079238	12.382588155981
1	760	873.999040686338	4.216556179427
1	774	886.024407346773	6.615863862567
1	779	892.303360220192	12.349633735209
1	781	892.859807628188	10.640771471146
1	798	918.219142806818	33.084609948724
1	806	922.988625221414	32.306765164359
1	808	927.035883136626	30.050667211692
1	825	935.272397265615	30.220159453097
1	839	956.857044500378	51.2386713575
1	841	958.490308282578	52.492345971888
1	843	959.759674920093	45.008627601184
1	845	959.770624690579	40.767984134716
1	856	962.725016064961	41.81926012837
1	861	973.29288143018	45.183227580618
1	863	978.132389729001	47.144176453812
1	868	978.462435138396	47.420933039628
1	882	1005.064591929441	73.89332588545
1	884	1006.247366222045	73.874137707827
1	892	1016.878626790368	76.159132936361
1	897	1032.908395731261	90.04439019669
1	899	1038.083622384502	87.415791095323
1	904	1048.969513759804	95.179050548204
1	909	1055.802112282577	94.771243814088
1	917	1060.350762369856	99.194909073837
1	919	1065.214361055509	103.76193969998
1	924	1072.639355348364	103.06964473603
1	926	1072.80439508194	94.468037694352
1	928	1074.595131115626	87.115810508389
1	930	1078.598744595588	81.09907836114
1	932	1083.414982718531	83.730541229843
1	940	1086.992044795163	85.177688838521
1	945	1090.409204344676	81.364573327481
1	947	1093.309919777323	77.490193998493
1	949	1093.56672225774	62.312322372936
1	951	1093.811380766634	48.376692391387
1	959	1096.974209204299	46.121333107422
1	964	1108.630770413314	51.549652237117
1	975	1115.136683281162	55.779275621489
1	977	1119.714751507209	47.767986376751
1	982	1124.37849215803	40.510288739585
1	984	1126.284856278621	40.558646886498
1	987	1128.870616724018	40.380429004734
1	989	1132.035934319297	37.805032932313
1	991	1133.541768438085	38.420963040787
1	993	1137.552982675981	34.695680803441
1	995	1138.962917315252	29.832391931008
1	997	1142.524342899827	32.882116228995
1	999	1143.245547004944	28.139754527703
1	1001	1147.652043137689	24.609726706018
