version 2
run Testbench_1-1312-20170516-19:22:26-58952
attr configname Testbench_1
attr datetime 20170516-19:22:26
attr experiment Testbench_1
attr inifile omnetpp.ini
attr iterationvars $0=350
attr iterationvars2 "$0=350, $repetition=12"
attr measurement $0=350
attr network Toll_road
attr processid 58952
attr repetition 12
attr replication #12
attr resultdir results
attr runnumber 1312
attr seedset 1312
param **.numBooths 3
param **.queue[*].serviceTime exponential(5.11s)
param **.source.interArrivalTime exponential(5.854s)
param **.source.numJobs 1000

vector 0  Toll_road.queue[0]  jobsProcessed:vector  ETV
attr interpolationmode  none
attr source  queueingTime
attr title  "jobs processed, vector"
vector 1  Toll_road.sink  lifeTime:vector  ETV
attr interpolationmode  none
attr title  "lifetime of arrived jobs, vector"
attr unit  s
0	3	3.305057468741	0
0	7	9.647117781319	0.058002904278
0	12	16.739714838628	2.919835602141
0	23	24.263077152662	6.691373160052
0	25	31.967780654952	12.767714165194
0	27	51.48997170903	30.946277220417
0	33	54.896430223065	0
0	38	56.538133797696	0
0	42	57.841700980253	0.343210383117
0	56	72.383789048845	13.678722961513
0	58	74.137381424199	15.395354407848
0	63	76.202351632184	16.564723113457
0	65	77.668890703035	6.185305265588
0	67	78.16483102851	2.017794073583
0	72	87.102459822561	2.369526191788
0	78	98.254901186541	0
0	82	102.185204619833	2.732931980223
0	88	109.487355402962	0
0	92	115.886602912256	3.898782813489
0	97	119.01037075049	2.723112609687
0	117	138.079684643102	15.263201634929
0	119	138.34991312566	14.069232385055
0	121	138.687643253274	11.195725708122
0	123	139.018807518878	7.781825088191
0	125	146.21021915382	10.318227499894
0	130	154.210062490755	16.920201566169
0	138	159.29995257985	9.452130705787
0	146	173.058035976046	16.468738631982
0	148	173.926138991381	17.083064459642
0	156	192.094982592469	28.013427341468
0	161	200.88423118959	28.899532030359
0	181	234.55377995399	59.041335594797
0	201	257.416096478329	71.447031962569
0	203	257.960090328686	65.164818842755
0	205	259.194594890813	51.953784370911
0	207	262.940183474654	54.047721959594
0	209	263.408519237831	51.193231407558
0	211	263.489976474852	44.833039958069
0	216	267.063112810272	46.940846820481
0	221	267.580761871739	34.389688706836
0	223	267.905724001552	30.427080741715
0	228	270.607861513875	30.725045825576
0	230	274.970663017668	26.370781223952
0	232	277.027787461426	28.370582641049
0	237	279.764559453845	29.771442001431
0	239	282.254124138716	31.647837017082
0	241	282.36541052842	18.865885409611
0	249	290.77548754825	23.704572675086
0	254	292.553652970832	23.733390899632
0	256	295.344569007113	17.208189392129
0	258	298.675699273766	13.783088298763
0	266	306.695508878253	18.639808368951
0	292	353.38981557085	61.025232002393
0	297	361.012640719648	60.222323072454
0	299	363.748486411646	60.597941755136
0	301	371.341170532118	57.723946276662
0	303	372.693527844715	56.695742243675
0	305	375.51311330913	53.014874681824
0	307	377.609748225689	39.336595920827
0	315	384.120867676032	45.255341158553
0	317	388.971112151278	48.579149568936
0	319	389.630798732143	49.121241597635
0	324	391.665949789009	39.181012619442
0	326	394.774023318737	34.741463039363
0	337	400.944479790247	19.127233781707
0	345	405.448990625136	23.111012122342
0	350	409.717481309008	19.000248362957
0	352	409.914263458099	10.549645516506
0	360	420.638649581453	20.981021241013
0	371	429.608206976833	29.88750098661
0	373	429.820214782259	26.456989376588
0	384	444.118621970114	39.731447627045
0	389	447.70505537787	38.893816063611
0	394	465.345561860235	54.24829986302
0	396	468.248163672848	56.702902629561
0	398	470.511199550766	49.065078237143
0	403	471.167844458445	46.793510622354
0	405	476.915752228827	47.881138983389
0	416	484.38088595512	49.34228747046
0	418	484.438005387963	41.935334088942
0	420	484.536712685023	40.980261467232
0	431	496.409742091538	51.538231946075
0	436	505.629818960137	42.486008420057
0	438	505.721775318266	34.980236984233
0	449	513.75514571524	32.002671792779
0	451	514.141126565399	32.30136470404
0	453	515.62234599589	33.31103701289
0	464	517.870387244518	27.191382187349
0	466	521.864969494195	28.750152203851
0	468	523.483024511323	28.458498413096
0	470	525.477367142911	24.401281860315
0	472	528.957460560239	22.752644792903
0	474	534.77660765577	26.84717391039
0	476	539.740119747902	26.055121535419
0	481	545.267012119293	28.816398482208
0	483	546.583180245875	29.750202606432
0	488	552.780809458731	35.840337190639
0	490	554.388356051577	9.486888993158
0	492	554.437534461036	6.082244252296
0	498	563.743388349866	0
0	508	578.654164104463	10.784605050317
0	510	580.392531921453	10.740729703559
0	518	589.305715187353	18.962969599203
0	520	593.58063726224	12.552822449231
0	522	594.303291529395	6.21540959331
0	528	597.396436622295	0
0	535	608.268796197171	9.040629914129
0	537	612.878460837148	12.825582743008
0	543	627.355616461044	0
0	548	634.043012998273	0
0	553	649.87167084549	0
0	557	658.510717883365	0.707417941348
0	563	674.29646213307	0
0	568	695.343763447086	0
0	573	695.95299298547	0
0	578	701.723350908514	0
0	583	726.410094607039	0
0	587	735.882731547105	4.323563900549
0	593	770.420138735538	0
0	598	774.839826828144	0
0	602	775.805611037794	0.188200497108
0	608	780.386386123128	0
0	615	787.196772278544	1.661724679226
0	620	788.042731587405	1.341166544608
0	622	789.701522086451	2.187865516117
0	628	799.584759369837	0
0	633	810.055440550714	0
0	638	821.995769369323	0
0	643	826.28249266318	0
0	653	842.034121873319	12.9697159521
0	658	842.793635538222	13.414757952955
0	660	846.371726704146	16.113289812406
0	665	853.580566851333	10.911543492343
0	667	863.787509365244	11.885851824472
0	673	871.798029878793	0
0	678	901.340887658998	0
0	683	908.064855858471	0
0	688	911.540550047391	0
0	693	920.087826498259	0
0	697	923.386786002368	0.968341646849
0	705	935.40556216126	11.655752287619
0	710	937.036910198578	2.612737759056
0	718	943.872927533761	7.278133886219
0	723	947.087109928024	4.048680834399
0	740	963.179274616439	19.56323273877
0	754	974.196860823932	29.492803629345
0	756	975.660262327281	27.918264838388
0	761	978.453248010691	26.386558287795
0	763	978.611875989672	24.916443296597
0	765	984.218994157004	29.843992827808
0	770	988.000136651257	33.313082977703
0	781	996.927433503726	31.088724391636
0	786	1007.733982717567	36.97158557348
0	788	1007.830560526613	35.712037385148
0	790	1015.95469595832	43.19328751473
0	792	1017.105687582644	39.49011897507
0	797	1029.180163061578	43.715351070511
0	799	1034.120166658341	46.106908585549
0	819	1046.797845287355	53.727262692045
0	821	1048.58299469188	54.326268145207
0	823	1050.840775573752	51.180817921491
0	831	1058.26924081033	31.124242673868
0	833	1066.853352024212	31.657986982566
0	838	1072.944363464752	36.339477285112
0	846	1074.652733182292	37.680105296884
0	848	1074.989611992425	36.930628320544
0	859	1086.118738074254	46.659054051
0	864	1090.813565065112	45.414584890183
0	872	1094.095202888615	42.072027359486
0	877	1096.057901655771	43.029953904761
0	888	1105.138041440911	33.727813729921
0	896	1126.905054722226	53.918159128006
0	901	1136.234660385778	62.117769424917
0	915	1151.712628779831	74.538724520464
0	920	1156.541082026347	78.709317617338
0	922	1156.576439588872	72.370180217143
0	924	1157.014018100053	68.680620319995
0	926	1159.332719015328	66.25460611072
0	928	1161.476180937789	67.85370476052
0	936	1165.782359674404	70.072757518784
0	944	1170.657553119682	74.375310587906
0	946	1173.295518633464	76.226174509648
0	948	1173.438469012868	73.098530308307
0	950	1181.404147921768	71.867671161607
0	952	1181.829754602423	67.59712439343
0	963	1198.206843022483	64.070107589521
0	968	1202.113430933803	59.670637542252
0	970	1205.271761186358	58.618760357656
0	975	1209.024267942311	60.063607317486
0	977	1212.217776626668	63.243289411634
0	988	1230.085274219244	74.984307092086
0	1017	1256.162119190578	93.306288707778
0	1022	1258.953534020954	93.444015804253
0	1027	1262.22046383646	94.77916461893
0	1029	1265.85962144911	96.889918108631
0	1031	1267.282308271621	83.291168836851
0	1048	1290.469599496586	95.305388451989
0	1050	1293.077736662604	96.46492611405
0	1055	1299.225392618988	99.405905218955
0	1063	1302.005682025244	93.79272478857
0	1074	1314.196952516667	94.939425968595
0	1076	1315.541898971447	92.720768193319
0	1078	1316.107527135319	88.60785363234
0	1080	1323.300503542593	90.993611568681
0	1082	1324.667903316676	91.179400831206
0	1084	1325.706067515138	88.085488549585
0	1089	1330.324979783113	90.676189176799
0	1094	1334.38628381846	94.14705087838
0	1096	1340.912620081694	98.864129703097
0	1098	1342.472250828431	96.477329904452
0	1106	1346.175559331111	97.53059109768
0	1114	1350.565879613122	97.053802089433
0	1116	1353.564556224792	95.656562066039
0	1118	1358.454568524847	99.306996754623
0	1123	1369.618630742845	97.852278889592
0	1128	1370.629908957926	94.553303087632
0	1130	1371.664901044403	95.144608393081
0	1138	1379.037535527444	99.661361846109
0	1140	1381.847028845643	97.875377228314
0	1142	1382.905433452827	87.515522624061
0	1153	1407.009771423192	106.88973595797
0	1155	1408.852376907451	108.49224504006
0	1157	1411.253934001537	105.90069789558
0	1159	1414.757977301159	107.99374461857
0	1161	1417.658814061767	103.53619087502
0	1163	1418.718211835283	90.583705024297
0	1165	1419.338749126236	85.217214917526
0	1170	1423.555653886693	80.007689561214
0	1175	1426.189694136164	80.298588021386
0	1177	1429.195026915655	81.942017684217
0	1179	1429.909560580918	80.95314827378
0	1181	1430.306557070346	61.333931208804
0	1186	1434.088336535278	63.964863434911
0	1188	1441.378313370825	65.08959089324
0	1190	1445.960262400847	68.042398172877
0	1192	1446.049886142133	51.805982920877
0	1203	1456.457657499657	52.953330928889
0	1211	1464.483209572183	58.790388557324
0	1213	1466.343782120414	45.297124995796
0	1215	1468.83003089449	43.379089841894
0	1217	1470.128841740115	37.36224223749
0	1219	1470.664753462557	22.592996143501
0	1221	1470.936914975766	20.244709554952
0	1223	1471.029036363734	15.41064491531
0	1231	1474.697824177604	17.406904414251
0	1233	1481.709691431099	17.774773748907
0	1235	1483.217945218513	12.050226510655
0	1243	1507.929850031456	35.337845300239
0	1245	1508.647700545321	17.813681118394
0	1247	1515.574662718475	23.491863475374
0	1264	1534.895569355767	18.344514113456
0	1266	1537.957525503559	14.889737289627
0	1271	1538.634249075733	14.827113827126
0	1273	1538.950331704301	11.709038832464
0	1275	1541.157900210964	8.219776226859
0	1277	1552.262963014511	13.783897781128
0	1288	1561.007688032234	6.63262400366
0	1290	1575.995204814878	16.814934409566
0	1304	1594.446294189799	33.918247624369
0	1306	1594.94771873756	18.875274692648
0	1308	1596.178478289273	14.002392833226
0	1313	1600.576209263118	14.99186146357
0	1315	1602.502411226724	12.638376834734
0	1317	1605.235290998268	8.57001693976
0	1322	1615.557174427628	5.293452174132
0	1328	1617.598351544292	0
0	1333	1625.35684165188	0
0	1338	1641.603397484943	0
0	1343	1650.347651589781	0
0	1348	1654.793090720827	0
0	1353	1658.1900442843	0
0	1357	1664.918377129521	1.825088379027
0	1363	1674.658479516539	0
0	1367	1676.17950316613	0.874416192247
0	1372	1690.222498845606	8.168401201988
0	1380	1698.260886498189	4.933897447728
0	1382	1701.133996895634	3.717349582977
0	1387	1703.06643922558	0.004165062271
0	1393	1710.10950777049	0
0	1398	1720.763007275823	0
0	1405	1727.224346728006	6.217510878678
0	1413	1749.340595664641	22.558677245625
0	1418	1751.769797428982	14.499126125344
0	1423	1752.744053737118	9.592774163942
0	1425	1756.721940791931	6.18984247771
0	1433	1762.214006271534	10.383109886167
0	1435	1762.28481057407	1.435692546518
0	1437	1771.457077542851	10.218829528198
0	1445	1781.776840639001	3.401104985865
0	1447	1783.501179324577	4.369752263698
0	1452	1791.237686915692	2.351296392075
0	1457	1801.487224121179	3.56507737786
0	1462	1804.365182225733	0.421165412756
0	1467	1807.936233273062	0.599279863076
0	1475	1822.396614443644	14.223303312305
0	1480	1827.812046947583	10.189086338254
0	1491	1836.153985915329	8.990501150767
0	1493	1836.539184260638	8.367413878595
0	1495	1837.357705774142	7.950401062275
0	1500	1840.576533962878	6.517448171707
0	1502	1843.87222609333	4.372521177796
0	1508	1849.517086217465	0
0	1515	1854.042373735757	3.250699359084
0	1517	1855.183669129878	1.405026984302
0	1531	1864.433819900509	7.980540181683
0	1533	1864.751060104918	5.902313088234
0	1538	1867.098881367979	5.805536530619
0	1540	1867.457230898815	4.773109436269
0	1545	1870.432293295148	4.570404900822
0	1550	1879.377893961961	11.510173477278
0	1552	1884.984183316577	8.618654348589
0	1558	1912.399170763247	0
0	1563	1918.99423533206	0
0	1567	1926.204974010558	4.103687433165
0	1573	1938.989515919807	0
0	1577	1940.146783604956	0.217188132226
0	1583	1953.026049546987	0
0	1588	1959.502412005473	0
0	1592	1960.459440947769	0.844436566714
0	1600	1977.894009224604	15.753128378324
0	1611	1983.57674589733	7.707223653969
0	1622	1993.92863754313	15.591261459749
0	1630	1997.307542615371	18.214583007764
0	1635	2009.639259235296	28.302117990693
0	1637	2009.783658657221	24.291211783099
0	1639	2013.762299933826	24.525253313694
0	1641	2022.863363892466	30.943260959739
0	1646	2028.55966485813	32.758242145966
0	1651	2030.880399679464	33.745328670204
0	1653	2031.525290064341	30.00517940027
0	1658	2035.339187723023	11.652932574046
0	1660	2035.845557884384	6.71314358811
0	1662	2039.488796950935	6.35696806526
0	1668	2046.937505842651	0
0	1673	2054.970004843587	0
0	1678	2073.570155792127	0
0	1683	2082.231221279795	0
0	1688	2087.726640418203	0
0	1693	2107.991105440169	0
0	1697	2113.312383245607	0.456818754152
0	1702	2115.624979763981	0.84207186446
0	1708	2125.302436232922	0
0	1713	2141.57093253704	0
0	1717	2143.03678950903	0.340061621911
0	1722	2149.235847900629	0.133342184201
0	1727	2151.865838411791	1.645167986718
0	1733	2170.592706865764	0
0	1738	2177.348994408195	0
0	1742	2180.257214311943	2.621617714601
0	1747	2182.813005697311	1.864675909064
1	8	9.647117781319	6.342060312578
1	13	16.739714838628	7.150599961587
1	24	24.263077152662	10.443197916175
1	26	31.967780654952	14.396076662342
1	28	51.48997170903	32.289905219272
1	30	51.973226516062	31.429532027449
1	35	55.927161533338	1.030731310273
1	43	57.841700980253	1.303567182557
1	57	72.383789048845	14.885298451709
1	59	74.137381424199	15.432315336867
1	64	76.202351632184	17.460324615833
1	66	77.668890703035	18.031262184308
1	68	78.16483102851	6.681245591063
1	73	87.102459822561	10.955422867634
1	75	87.714683193661	2.981749562888
1	83	102.185204619833	3.930303433292
1	85	103.36377211552	3.91149947591
1	93	115.886602912256	6.399247509294
1	98	119.01037075049	7.022550651723
1	118	138.079684643102	21.792426502299
1	120	138.34991312566	15.533430117487
1	122	138.687643253274	14.406962512669
1	124	139.018807518878	11.526889973726
1	126	146.21021915382	14.973236723133
1	131	154.210062490755	18.318070836829
1	139	159.29995257985	22.010091655264
1	147	173.058035976046	23.210214101983
1	149	173.926138991381	17.336841647317
1	157	192.094982592469	35.25190806073
1	162	200.88423118959	36.802675938589
1	182	234.55377995399	62.569080794759
1	202	257.416096478329	81.903652119136
1	204	257.960090328686	71.991025812926
1	206	259.194594890813	66.399323404882
1	208	262.940183474654	55.699372954752
1	210	263.408519237831	54.516057722771
1	212	263.489976474852	51.274688644579
1	217	267.063112810272	48.406176293489
1	222	267.580761871739	47.458495881948
1	224	267.905724001552	34.714650836649
1	229	270.607861513875	33.129218254038
1	231	274.970663017668	35.087847329369
1	233	277.027787461426	28.42790566771
1	238	279.764559453845	31.107354633468
1	240	282.254124138716	32.261006686302
1	242	282.36541052842	31.759123406786
1	250	290.77548754825	27.275962429441
1	255	292.553652970832	25.482738097668
1	257	295.344569007113	26.524306935913
1	259	298.675699273766	20.539319658782
1	267	306.695508878253	21.80289790325
1	293	353.38981557085	65.334115061548
1	298	361.012640719648	68.648057151191
1	300	363.748486411646	62.958168764452
1	302	371.341170532118	68.190625875608
1	304	372.693527844715	59.076303589259
1	306	375.51311330913	59.51532770809
1	308	377.609748225689	55.111509598383
1	316	384.120867676032	45.84771537117
1	318	388.971112151278	50.105585633799
1	320	389.630798732143	49.238836149801
1	325	391.665949789009	51.156392654501
1	327	394.774023318737	42.28908614917
1	338	400.944479790247	40.911919510873
1	346	405.448990625136	23.631744616596
1	351	409.717481309008	27.379502806214
1	353	409.914263458099	19.197030512048
1	361	420.638649581453	21.27403163986
1	372	429.608206976833	29.950578636393
1	374	429.820214782259	30.099508792036
1	385	444.118621970114	40.755396564443
1	390	447.70505537787	43.317881034801
1	395	465.345561860235	56.534322545976
1	397	468.248163672848	57.150901675633
1	399	470.511199550766	58.965938507479
1	404	471.167844458445	49.721723144822
1	406	476.915752228827	52.541418392736
1	417	484.38088595512	55.346272709682
1	419	484.438005387963	49.399406903303
1	421	484.536712685023	42.034041386002
1	432	496.409742091538	52.853290873747
1	437	505.629818960137	60.758308814674
1	439	505.721775318266	42.577964778186
1	450	513.75514571524	43.013607381207
1	452	514.141126565399	32.388652642938
1	454	515.62234599589	33.782584134531
1	465	517.870387244518	35.559078261518
1	467	521.864969494195	31.185964437026
1	469	523.483024511323	30.368207220979
1	471	525.477367142911	30.452841044684
1	473	528.957460560239	27.881375277643
1	475	534.77660765577	28.571791888434
1	477	539.740119747902	31.810686002522
1	482	545.267012119293	31.58201390681
1	484	546.583180245875	30.13256660879
1	489	552.780809458731	35.947831819288
1	491	554.388356051577	37.447883783485
1	493	554.437534461036	9.536067402617
1	495	554.873843688127	6.518553479387
1	509	578.654164104463	14.910775754597
1	511	580.392531921453	12.522972867307
1	519	589.305715187353	19.653912969459
1	521	593.58063726224	23.23789167409
1	523	594.303291529395	13.275476716386
1	525	595.139424521872	7.051542585787
1	536	608.268796197171	10.872359574876
1	538	612.878460837148	13.650294554106
1	540	615.488601976489	15.435723882349
1	545	628.702829746644	1.3472132856
1	550	637.070479865221	3.027466866948
1	558	658.510717883365	8.639047037875
1	560	663.725821210604	5.922521268587
1	565	676.327391602215	2.030929469145
1	570	695.356018967666	0.01225552058
1	575	697.400948924314	1.447955938844
1	580	704.086443688859	2.363092780345
1	588	735.882731547105	9.472636940066
1	590	736.949510345447	5.390342698891
1	595	772.665291155115	2.245152419577
1	603	775.805611037794	0.96578420965
1	605	776.292790175406	0.67537963472
1	616	787.196772278544	6.810386155416
1	621	788.042731587405	2.507683988087
1	623	789.701522086451	2.999957043654
1	625	797.501045269613	9.987388699279
1	630	809.009964534055	9.425205164218
1	635	818.738756040008	8.683315489294
1	640	825.554131500935	3.558362131612
1	654	842.034121873319	15.751629210139
1	659	842.793635538222	13.729229617003
1	661	846.371726704146	16.992849118879
1	666	853.580566851333	23.322129959593
1	668	863.787509365244	21.118486006254
1	670	863.86038064406	11.958723103288
1	675	875.847519899495	4.049490020702
1	680	901.362814711737	0.021927052739
1	685	911.152656552021	3.08780069355
1	690	911.968106713424	0.427556666033
1	698	923.386786002368	3.298959504109
1	706	935.40556216126	12.987117805741
1	711	937.036910198578	13.287100324937
1	719	943.872927533761	9.448755094239
1	724	947.087109928024	10.492316280482
1	741	963.179274616439	20.140845522814
1	755	974.196860823932	30.580818946263
1	757	975.660262327281	30.956205132694
1	762	978.453248010691	30.711250521798
1	764	978.611875989672	26.545186266776
1	766	984.218994157004	30.523561463929
1	771	988.000136651257	33.625135322061
1	782	996.927433503726	42.240379830172
1	787	1007.733982717567	41.895273605477
1	789	1007.830560526613	37.068163382526
1	791	1015.95469595832	43.836172816855
1	793	1017.105687582644	44.344279139054
1	798	1029.180163061578	51.564594454004
1	800	1034.120166658341	48.655354667274
1	820	1046.797845287355	58.784587214563
1	822	1048.58299469188	55.51241209657
1	824	1050.840775573752	56.584049027079
1	832	1058.26924081033	58.609283158069
1	834	1066.853352024212	39.70835388775
1	839	1072.944363464752	37.748998423106
1	847	1074.652733182292	38.047847002652
1	849	1074.989611992425	38.016984107017
1	860	1086.118738074254	48.059754402373
1	865	1090.813565065112	51.353881041858
1	873	1094.095202888615	48.696222713686
1	878	1096.057901655771	44.034726126642
1	889	1105.138041440911	52.110093689901
1	897	1126.905054722226	55.494827011236
1	902	1136.234660385778	63.247764791558
1	916	1151.712628779831	77.59573781897
1	921	1156.541082026347	79.36717776698
1	923	1156.576439588872	78.744675179863
1	925	1157.014018100053	72.807758728324
1	927	1159.332719015328	70.99932123527
1	929	1161.476180937789	68.398068033181
1	937	1165.782359674404	72.159883497135
1	945	1170.657553119682	74.947950964062
1	947	1173.295518633464	77.013276101688
1	949	1173.438469012868	76.369124889052
1	951	1181.404147921768	81.064209217207
1	953	1181.829754602423	72.293277842262
1	964	1198.206843022483	83.97421281349
1	969	1202.113430933803	67.976695500841
1	971	1205.271761186358	62.828967794807
1	976	1209.024267942311	62.371267113609
1	978	1212.217776626668	63.257116001843
1	989	1230.085274219244	81.11078700421
1	1018	1256.162119190578	101.06115206342
1	1023	1258.953534020954	96.097703538154
1	1028	1262.22046383646	96.710945619759
1	1030	1265.85962144911	98.41832223158
1	1032	1267.282308271621	98.312604931142
1	1049	1290.469599496586	106.47846006182
1	1051	1293.077736662604	97.913525618007
1	1056	1299.225392618988	102.61258207043
1	1064	1302.005682025244	102.18619462521
1	1075	1314.196952516667	105.98399527999
1	1077	1315.541898971447	96.284372423375
1	1079	1316.107527135319	93.286396357191
1	1081	1323.300503542593	95.800830039614
1	1083	1324.667903316676	92.361011342764
1	1085	1325.706067515138	92.217565029668
1	1090	1330.324979783113	92.70440081756
1	1095	1334.38628381846	94.737493212146
1	1097	1340.912620081694	100.67338714161
1	1099	1342.472250828431	100.42376044983
1	1107	1346.175559331111	100.18063840713
1	1115	1350.565879613122	101.92091137969
1	1117	1353.564556224792	100.0524787011
1	1119	1358.454568524847	100.54657436609
1	1124	1369.618630742845	110.47105897262
1	1129	1370.629908957926	98.863557104673
1	1131	1371.664901044403	95.588295174109
1	1139	1379.037535527444	102.51724287612
1	1141	1381.847028845643	102.47085516431
1	1143	1382.905433452827	98.933781835498
1	1154	1407.009771423192	111.61986059443
1	1156	1408.852376907451	108.73234144223
1	1158	1411.253934001537	110.89380213414
1	1160	1414.757977301159	109.4047411952
1	1162	1417.658814061767	110.89458137918
1	1164	1418.718211835283	104.59558864853
1	1166	1419.338749126236	91.20424231525
1	1171	1423.555653886693	89.434119677983
1	1176	1426.189694136164	82.641729810685
1	1178	1429.195026915655	83.303920800877
1	1180	1429.909560580918	82.65655134948
1	1182	1430.306557070346	81.350144763208
1	1187	1434.088336535278	65.115710673736
1	1189	1441.378313370825	71.254840270458
1	1191	1445.960262400847	69.671539923262
1	1193	1446.049886142133	68.132021914163
1	1204	1456.457657499657	62.213754278401
1	1212	1464.483209572183	60.978883001415
1	1214	1466.343782120414	60.650961105555
1	1216	1468.83003089449	47.783373769872
1	1218	1470.128841740115	44.677900687519
1	1220	1470.664753462557	37.898153959932
1	1222	1470.936914975766	22.86515765671
1	1224	1471.029036363734	20.33683094292
1	1232	1474.697824177604	19.07943272918
1	1234	1481.709691431099	24.418771667746
1	1236	1483.217945218513	19.283027536321
1	1244	1507.929850031456	36.762131323598
1	1246	1508.647700545321	36.055695814104
1	1248	1515.574662718475	24.740643291548
1	1265	1534.895569355767	42.812770112666
1	1267	1537.957525503559	21.406470261248
1	1272	1538.634249075733	15.566460861801
1	1274	1538.950331704301	15.143196455694
1	1276	1541.157900210964	13.916607339127
1	1278	1552.262963014511	19.324839030406
1	1289	1561.007688032234	22.528622798851
1	1291	1575.995204814878	21.620140786304
1	1305	1594.446294189799	35.266023784487
1	1307	1594.94771873756	34.41967217213
1	1309	1596.178478289273	20.106034244361
1	1314	1600.576209263118	18.400123807071
1	1316	1602.502411226724	16.918063427176
1	1318	1605.235290998268	15.371256606278
1	1323	1615.557174427628	18.89190036912
1	1325	1615.867520667189	5.603798413693
1	1330	1618.75612924929	1.157777704998
1	1335	1626.372286832841	1.015445180961
1	1340	1650.247612935399	8.644215450456
1	1345	1650.695760897052	0.348109307271
1	1350	1656.490780096244	1.697689375417
1	1358	1664.918377129521	6.728332845221
1	1360	1670.472668273905	7.379379523411
1	1368	1676.17950316613	1.521023649591
1	1373	1690.222498845606	14.917411871723
1	1381	1698.260886498189	16.206788854571
1	1383	1701.133996895634	7.807007845173
1	1388	1703.06643922558	5.649791912923
1	1390	1703.418231289349	0.35595712604
1	1395	1715.661445110424	5.551937339934
1	1406	1727.224346728006	6.461339452183
1	1414	1749.340595664641	28.333759815313
1	1419	1751.769797428982	24.987879009966
1	1424	1752.744053737118	15.47338243348
1	1426	1756.721940791931	13.570661218755
1	1434	1762.214006271534	11.681907957313
1	1436	1762.28481057407	10.453914188703
1	1438	1771.457077542851	10.607959515299
1	1446	1781.776840639001	20.538592624348
1	1448	1783.501179324577	5.125443671441
1	1453	1791.237686915692	12.106259854813
1	1458	1801.487224121179	12.600833597562
1	1463	1804.365182225733	6.443035482414
1	1468	1807.936233273062	3.992216460085
1	1476	1822.396614443644	15.059661033658
1	1481	1827.812046947583	19.638735816244
1	1492	1836.153985915329	18.531025306
1	1494	1836.539184260638	9.375699496076
1	1496	1837.357705774142	9.185935392099
1	1501	1840.576533962878	11.169229251011
1	1503	1843.87222609333	9.813140302159
1	1505	1845.88666818404	6.386963268506
1	1516	1854.042373735757	4.525287518292
1	1518	1855.183669129878	4.391994753205
1	1532	1864.433819900509	10.655177754933
1	1534	1864.751060104918	8.297780386092
1	1539	1867.098881367979	8.250134351295
1	1541	1867.457230898815	6.163886061455
1	1546	1870.432293295148	7.748171832602
1	1551	1879.377893961961	13.516005567635
1	1553	1884.984183316577	17.116462831894
1	1555	1889.797819834708	13.43229086672
1	1560	1916.891674567777	4.49250380453
1	1568	1926.204974010558	7.210738678498
1	1570	1927.000029026994	4.898742449601
1	1578	1940.146783604956	1.157267685149
1	1580	1952.9191228339	12.98952736117
1	1585	1956.130321958565	3.104272411578
1	1593	1960.459440947769	0.957028942296
1	1601	1977.894009224604	18.279004843549
1	1612	1983.57674589733	21.43586505105
1	1623	1993.92863754313	18.059115299769
1	1631	1997.307542615371	18.97016653199
1	1636	2009.639259235296	30.546299627689
1	1638	2009.783658657221	28.446517412618
1	1640	2013.762299933826	28.269853059704
1	1642	2022.863363892466	33.626317272334
1	1647	2028.55966485813	36.639561925403
1	1652	2030.880399679464	35.0789769673
1	1654	2031.525290064341	34.390219055081
1	1659	2035.339187723023	33.819077058952
1	1661	2035.845557884384	12.159302735407
1	1663	2039.488796950935	10.356382654661
1	1665	2039.749352228119	6.617523342444
1	1670	2046.976502335932	0.038996493281
1	1675	2054.995701400421	0.025696556834
1	1680	2074.517287042131	0.947131250004
1	1685	2084.549784816274	2.318563536479
1	1690	2092.67014338163	4.943502963427
1	1698	2113.312383245607	5.321277805438
1	1703	2115.624979763981	2.769415272526
1	1705	2120.746094307767	5.963186408246
1	1710	2136.561939426214	11.259503193292
1	1718	2143.03678950903	1.46585697199
1	1723	2149.235847900629	6.53912001351
1	1728	2151.865838411791	2.763332695363
1	1730	2151.905439370007	1.684768944934
1	1735	2173.863921274946	3.271214409182
1	1743	2180.257214311943	2.908219903748
1	1748	2182.813005697311	5.177409099969
1	1751	2192.134439871357	11.18611008311
