version 2
run Testbench_1-526-20170516-19:18:58-53380
attr configname Testbench_1
attr datetime 20170516-19:18:58
attr experiment Testbench_1
attr inifile omnetpp.ini
attr iterationvars $0=150
attr iterationvars2 "$0=150, $repetition=26"
attr measurement $0=150
attr network Toll_road
attr processid 53380
attr repetition 26
attr replication #26
attr resultdir results
attr runnumber 526
attr seedset 526
param **.numBooths 3
param **.queue[*].serviceTime exponential(5.11s)
param **.source.interArrivalTime exponential(5.854s)
param **.source.numJobs 1000

vector 0  Toll_road.queue[0]  jobsProcessed:vector  ETV
attr interpolationmode  none
attr source  queueingTime
attr title  "jobs processed, vector"
vector 1  Toll_road.sink  lifeTime:vector  ETV
attr interpolationmode  none
attr title  "lifetime of arrived jobs, vector"
attr unit  s
0	3	0.46810372352	0
0	8	14.246339565375	0
0	21	23.999793554738	9.643053413048
0	23	25.899472735154	11.161436603598
0	28	29.485158332726	11.327319611207
0	36	49.115636922854	25.329504622911
0	38	57.273158618758	28.62751430956
0	40	57.578144955211	23.665321532043
0	42	61.827015817623	26.59044081182
0	48	62.021958071162	0
0	53	69.808387635314	0
0	57	74.07019484279	1.326005048394
0	62	79.852797628534	4.393837865332
0	68	90.679583490997	0
0	72	95.759324469496	4.011225002034
0	92	106.439126453956	10.338876141767
0	97	115.754616202745	17.777505612909
0	102	118.128058907412	17.118086820854
0	104	119.59512504784	16.572067406681
0	109	123.440008665083	20.204879746969
0	114	134.830034918761	29.973548650464
0	116	140.157719835111	32.777780529872
0	118	141.0575872434	25.132836822914
0	120	142.366596782967	21.420397133153
0	125	144.713933552633	20.781188100383
0	127	146.027984284515	1.825528586237
0	133	160.861100026799	0
0	137	163.96870578717	0.168706677947
0	143	174.073979905657	0
0	148	181.292036306916	0
0	158	198.355360607398	11.190793845874
0	160	199.150261929122	11.436991661483
0	162	200.211198752923	9.313043936264
0	168	206.817624997697	0
0	190	232.214289996303	25.219311833461
0	192	237.90547140586	28.834028102999
0	194	240.358371478409	28.310063723273
0	199	241.01911626359	28.011568608019
0	207	256.616833340873	41.610660468515
0	212	268.873263060981	50.721114606934
0	217	273.749040249385	54.422064250763
0	222	284.34109917018	43.533634242402
0	224	284.762146118558	40.014941170588
0	226	288.855132461226	39.310256492923
0	231	290.39418677736	25.342906670561
0	236	299.613785048212	27.882850223409
0	238	310.451881934873	30.727478723165
0	240	311.382218249389	22.001769011054
0	242	317.952463346023	23.879008424879
0	247	322.057239424609	0.593245264329
0	252	323.149013725809	0.554020061887
0	260	324.837542546977	1.235197937226
0	262	327.394925442953	3.143598607475
0	282	352.139384618722	23.935888924745
0	284	357.526281580372	28.889728445595
0	298	366.990273304058	34.754256257927
0	300	367.96746281498	32.50727100331
0	302	375.257889892139	27.201737444972
0	304	375.286849249799	25.904979600484
0	312	380.000875528204	21.982975478358
0	317	381.839748573901	23.633294244409
0	325	386.119019055129	21.459965302952
0	327	388.03881912967	21.993405142839
0	335	400.043596288923	22.677931031258
0	337	400.935135190546	23.488149690923
0	339	401.613903949837	19.987707829105
0	341	401.699456777724	19.399680478763
0	343	410.601835279623	27.08778811224
0	345	413.899613774779	23.247664930093
0	347	414.021198282783	22.710639309728
0	355	417.285466682566	2.596431207027
0	372	427.962303155461	12.814093239374
0	377	429.860313977429	8.11671712476
0	379	432.770381271352	9.605583626274
0	387	439.406546862756	16.235908514016
0	392	447.538308839295	21.783109229646
0	394	447.948546631078	21.053247804875
0	402	456.251491492195	26.552189991829
0	404	460.077348827731	27.001036726755
0	415	470.418994342625	33.30239209267
0	417	471.351604729617	24.714979229688
0	419	475.959151737771	22.945985959763
0	424	483.484349465891	29.214032040034
0	426	487.698398080751	27.595943056346
0	431	492.842306162802	31.087678519695
0	439	495.878491700271	28.056391623611
0	444	500.7044106115	18.076920873501
0	446	501.911419160453	10.391169217165
0	460	514.329620120094	20.917815975928
0	462	514.887854236526	20.028256756311
0	467	526.844580495548	27.560060070652
0	469	528.992666493371	22.954135163294
0	474	534.193078881818	25.797209392169
0	476	536.734581921882	27.604869432525
0	481	539.248890409002	29.258445219056
0	489	554.867340831184	31.664299526464
0	494	560.958760939172	31.222427518891
0	499	563.096245542025	25.575738267723
0	501	564.94885675585	19.233209561794
0	506	568.081332770604	19.997587039592
0	508	572.406006581959	16.220907237802
0	513	573.20175880317	11.505851700672
0	518	575.204662924496	7.924843098011
0	526	583.263482138812	10.491547785506
0	531	588.221316785171	13.663704672306
0	542	596.182547730443	17.917570538121
0	556	610.040978784863	26.815012441968
0	558	612.876864710555	26.588188838815
0	563	618.527966565533	30.164969597917
0	565	619.379770220946	28.745388612535
0	567	619.98254596946	27.29750048448
0	581	633.610938970088	34.655541436414
0	586	638.615468531701	34.941359078866
0	588	645.162752908206	41.171085933837
0	590	653.284960881885	43.390570698348
0	592	658.984337640531	41.098132668299
0	603	664.09237623718	44.00460296029
0	614	676.799335981054	52.867099266102
0	616	678.965019158703	48.544328524646
0	621	686.600841520007	55.082334434553
0	623	687.245222109162	48.639534804182
0	625	697.669003594306	37.989274073735
0	630	700.743830657031	40.68533189586
0	632	705.340800119315	44.605421370394
0	640	713.787241297352	43.364172985579
0	642	725.886605083364	55.371442466722
0	644	727.978662597748	55.965859199663
0	649	731.64506355892	46.112414175011
0	657	735.665131231073	37.587049162805
0	659	738.20408134014	30.614277163052
0	661	739.584235612955	26.583907347628
0	663	741.288448842276	12.477446980623
0	671	747.707333326092	13.614940296139
0	673	750.728418115451	15.926802818268
0	678	758.093023067683	14.544413435697
0	680	766.021688548794	19.828177975515
0	682	766.581789734287	9.25177571367
0	693	774.736502583981	5.821150217117
0	695	782.255738883083	10.870160590505
0	703	785.84644482199	12.542726597519
0	705	789.317261944828	3.877114938785
0	707	796.420754702334	10.764167521464
0	712	798.465478689568	0.404472920372
0	718	802.979032426434	0
0	722	806.800034957881	2.161503962699
0	728	808.512579079414	0
0	733	818.055580340271	0
0	737	827.335299106779	5.733366881754
0	743	855.280268297229	0
0	748	868.624233500544	10.802877049286
1	5	11.349022872748	10.880919149228
1	22	23.999793554738	9.753453989363
1	24	25.899472735154	11.542732593464
1	29	29.485158332726	14.74712220117
1	37	49.115636922854	30.957798201335
1	39	57.273158618758	33.487026318815
1	41	57.578144955211	28.932500646013
1	43	61.827015817623	27.914192394455
1	45	61.875686498257	26.639111492454
1	50	67.130818042312	5.10885997115
1	58	74.07019484279	4.261807207476
1	63	79.852797628534	7.108607834138
1	65	83.730652277388	8.271692514186
1	73	95.759324469496	5.079740978499
1	93	106.439126453956	14.691026986494
1	98	115.754616202745	19.654365890556
1	103	118.128058907412	20.150948317576
1	105	119.59512504784	18.585152961282
1	110	123.440008665083	20.416951023924
1	115	134.830034918761	31.594906000647
1	117	140.157719835111	35.301233566814
1	119	141.0575872434	33.677647938161
1	121	142.366596782967	26.441846362481
1	126	144.713933552633	23.767733902819
1	128	146.027984284515	22.095238832265
1	130	146.663907620996	2.461451922718
1	138	163.96870578717	3.107605760371
1	140	169.551769646807	5.751770537584
1	145	179.637245857816	5.563265952159
1	159	198.355360607398	17.063324300482
1	161	199.150261929122	11.985695167598
1	163	200.211198752923	12.497928485284
1	165	201.102738629133	10.204583812474
1	191	232.214289996303	25.396664998606
1	193	237.90547140586	30.910493243018
1	195	240.358371478409	31.286928175548
1	200	241.01911626359	28.970808508454
1	208	256.616833340873	43.609285685302
1	213	268.873263060981	53.867090188623
1	218	273.749040249385	55.596891795338
1	223	284.34109917018	65.014123171558
1	225	284.762146118558	43.95468119078
1	227	288.855132461226	44.107927513256
1	232	290.39418677736	40.849310809057
1	237	299.613785048212	34.562504941413
1	239	310.451881934873	38.72094711007
1	241	311.382218249389	31.657815037681
1	243	317.952463346023	28.572014107688
1	248	322.057239424609	27.983784503465
1	253	323.149013725809	1.685019565529
1	261	324.837542546977	2.242548883055
1	263	327.394925442953	3.792580833202
1	283	352.139384618722	27.888057783244
1	285	357.526281580372	29.322785886395
1	299	366.990273304058	38.353720169281
1	301	367.96746281498	35.731445768849
1	303	375.257889892139	39.797698080469
1	305	375.286849249799	27.230696802632
1	313	380.000875528204	30.619005878889
1	318	381.839748573901	23.821848524055
1	326	386.119019055129	27.912564725637
1	328	388.03881912967	23.379765377493
1	336	400.043596288923	33.998182302092
1	338	400.935135190546	23.569469932881
1	340	401.613903949837	24.166918450214
1	342	401.699456777724	20.073260656992
1	344	410.601835279623	28.302058980662
1	346	413.899613774779	30.385566607396
1	348	414.021198282783	23.369249438097
1	356	417.285466682566	25.974907709511
1	373	427.962303155461	13.273267679922
1	378	429.860313977429	14.712104061342
1	380	432.770381271352	11.026784418683
1	388	439.406546862756	16.241749217678
1	393	447.538308839295	24.367670490555
1	395	447.948546631078	22.193347021429
1	403	456.251491492195	29.356192665992
1	405	460.077348827731	30.378047327365
1	416	470.418994342625	37.342682241649
1	418	471.351604729617	34.235002479662
1	420	475.959151737771	29.322526237842
1	425	483.484349465891	30.471183687883
1	427	487.698398080751	33.428080654894
1	432	492.842306162802	32.739851138397
1	440	495.878491700271	34.123864057164
1	445	500.7044106115	32.88231053484
1	447	501.911419160453	19.283929422454
1	461	514.329620120094	22.809370176806
1	463	514.887854236526	21.47605009236
1	468	526.844580495548	31.984983015333
1	470	528.992666493371	29.708146068475
1	475	534.193078881818	28.154547551741
1	477	536.734581921882	28.338712432233
1	482	539.248890409002	30.119177919645
1	490	554.867340831184	44.876895641238
1	495	560.958760939172	37.755719634452
1	500	563.096245542025	33.359912121744
1	502	564.94885675585	27.428349481548
1	507	568.081332770604	22.365685576548
1	509	572.406006581959	24.322260850947
1	514	573.20175880317	17.016659459013
1	519	575.204662924496	13.508755821998
1	527	583.263482138812	15.983662312327
1	532	588.221316785171	15.449382431865
1	543	596.182547730443	21.624935617578
1	557	610.040978784863	31.776001592541
1	559	612.876864710555	29.65089836766
1	564	618.527966565533	32.239290693793
1	566	619.379770220946	31.01677325333
1	568	619.98254596946	29.348164361049
1	582	633.610938970088	40.925893485108
1	587	638.615468531701	39.660070998027
1	589	645.162752908206	41.488643455371
1	591	653.284960881885	49.293293907516
1	593	658.984337640531	49.089947456994
1	604	664.09237623718	46.206171264948
1	615	676.799335981054	56.711562704164
1	617	678.965019158703	55.032782443751
1	622	686.600841520007	56.18015088595
1	624	687.245222109162	55.726715023708
1	626	697.669003594306	59.063316289326
1	631	700.743830657031	41.06410113646
1	633	705.340800119315	45.282301358144
1	641	713.787241297352	53.051862548431
1	643	725.886605083364	55.463536771591
1	645	727.978662597748	57.463499981106
1	650	731.64506355892	59.632260160835
1	658	735.665131231073	50.132481847164
1	660	738.20408134014	40.125999271872
1	662	739.584235612955	31.994431435867
1	664	741.288448842276	28.288120576949
1	672	747.707333326092	18.896331464439
1	674	750.728418115451	16.636025085498
1	679	758.093023067683	23.2914077705
1	681	766.021688548794	22.473078916808
1	683	766.581789734287	20.388279161008
1	694	774.736502583981	17.406488563364
1	696	782.255738883083	13.340386516219
1	704	785.84644482199	14.460866529412
1	706	789.317261944828	16.013543720357
1	708	796.420754702334	10.980607696291
1	713	798.465478689568	12.808891508698
1	715	801.44554279741	3.384537028214
1	723	806.800034957881	3.821002531447
1	725	807.634740818332	2.99620982315
1	730	816.758440117652	8.245861038238
1	738	827.335299106779	9.279718766508
1	740	828.265004709942	6.663072484917
1	749	868.624233500544	13.343965203315
1	751	869.931189459396	12.109833008138
