version 2
run Testbench_1-994-20170516-19:20:50-57504
attr configname Testbench_1
attr datetime 20170516-19:20:50
attr experiment Testbench_1
attr inifile omnetpp.ini
attr iterationvars $0=250
attr iterationvars2 "$0=250, $repetition=94"
attr measurement $0=250
attr network Toll_road
attr processid 57504
attr repetition 94
attr replication #94
attr resultdir results
attr runnumber 994
attr seedset 994
param **.numBooths 3
param **.queue[*].serviceTime exponential(5.11s)
param **.source.interArrivalTime exponential(5.854s)
param **.source.numJobs 1000

vector 0  Toll_road.queue[0]  jobsProcessed:vector  ETV
attr interpolationmode  none
attr source  queueingTime
attr title  "jobs processed, vector"
vector 1  Toll_road.sink  lifeTime:vector  ETV
attr interpolationmode  none
attr title  "lifetime of arrived jobs, vector"
attr unit  s
0	3	2.885418145651	0
0	8	8.653635116107	0
0	18	18.623035150012	7.859385661571
0	20	21.04757742148	9.687955344481
0	25	29.674189186688	17.645916499665
0	33	33.730387816388	4.391712176201
0	35	42.560697184109	12.536158800144
0	37	45.530983689628	12.868370583896
0	43	54.528963947407	0
0	48	68.97076858397	0
0	55	79.069598272045	8.878777618216
0	60	90.699026872173	16.611691118902
0	71	95.939012618088	15.277772364033
0	73	100.31744773915	8.399369935032
0	75	100.941586262593	7.510891110374
0	98	120.735960696806	25.580126682262
0	103	125.026216013894	23.053577164408
0	108	125.976548586654	23.801518211596
0	125	141.822600289976	39.584434740767
0	127	143.349355097066	38.684078001591
0	129	144.102055265255	38.199120667479
0	137	151.426766271785	42.916950174851
0	139	158.589281980535	41.770741887123
0	144	169.515786074651	44.532787877413
0	149	173.489129649812	47.701652522425
0	154	181.724337331655	55.520030841801
0	159	182.066077531303	53.017594398054
0	164	185.829686232169	49.78424843854
0	172	189.396271906526	51.300419915469
0	174	189.613472502438	49.751536285263
0	182	204.12930383453	56.104154165866
0	190	211.563081572927	62.805967785092
0	210	228.974629966198	70.053666896168
0	212	229.908379281617	58.803412935246
0	214	233.492879545538	53.370912198351
0	219	238.556542921025	56.737207570881
0	221	239.820241198164	57.111575925104
0	226	244.149763693185	57.71557015011
0	234	248.903302551568	60.559582254261
0	242	253.468107773337	54.409536503883
0	244	253.662575154537	52.893059073197
0	246	256.456925936145	50.840775481078
0	248	261.996363004208	50.512424267289
0	250	268.238888957603	56.211957172586
0	258	288.312293018165	75.294617583632
0	260	292.411081461787	78.483544374971
0	265	293.988077824064	73.577222117902
0	267	295.484931858542	73.923203552559
0	272	303.519748530636	78.153875816383
0	280	308.105004783828	73.143877901525
0	285	316.387864572112	75.220634847875
0	287	329.845577552392	84.641723516098
0	289	332.962156491868	84.646149671776
0	291	337.841010306802	88.476720968149
0	293	345.870273939752	95.47426334912
0	295	347.384198976141	77.762856313614
0	297	353.369307481356	80.979031949035
0	302	356.673169017373	63.654645522065
0	310	365.485409420968	68.67306982132
0	312	373.262861141078	66.510348608958
0	314	375.838891633865	68.64199474494
0	319	381.364016557354	72.668793431262
0	321	384.876295011659	29.261396821387
0	323	406.728331481358	48.498228243155
0	325	411.525196062426	48.065155918222
0	327	412.802742356761	35.209506803495
0	335	416.695882513538	3.473334452201
0	340	423.594130923971	8.63011580628
0	342	423.907808527808	3.766255184094
0	347	426.116494312901	0.116125645591
0	353	426.305113632894	0
0	357	433.033305231921	4.668997110651
0	363	437.303020885275	0
0	376	460.665136201602	16.333643070445
0	381	462.735093354128	13.990288570338
0	383	464.622342410763	12.530036596036
0	388	468.354778132511	9.749425233768
0	390	485.143184592556	22.588947681186
0	395	489.353159639958	23.35251726764
0	397	490.854709890175	3.672572331817
0	402	494.915578415965	3.897277259266
0	413	509.746953017631	6.16897641583
0	415	510.173612356007	3.068072307601
0	417	510.445926598035	2.878900240466
0	423	513.615123437828	0
0	427	514.957648344462	0.152545611422
0	433	518.294901517371	0
0	440	532.407714345408	8.818611491964
0	457	544.724159957814	17.725234179586
0	459	550.893465392453	15.694634756511
0	461	550.915453500383	12.444877068883
0	466	556.035971744875	16.378179303694
0	471	557.935477940672	16.476628391042
0	482	565.299580661865	22.117804784353
0	484	567.137938019598	14.328153430646
0	495	579.340905347217	22.76655833952
0	503	590.759872843668	30.47798289363
0	505	595.828518865022	34.94639955288
0	510	598.374998329049	34.949712204359
0	515	604.739513832715	37.184550483998
0	520	617.654513053152	43.778570562982
0	534	633.837541021266	55.699506466429
0	536	633.938982237434	50.837994138445
0	538	634.712630360741	46.79672628202
0	540	637.370577468299	40.81443626441
0	545	640.925602329598	41.933151001141
0	547	642.22772044275	26.267378111637
0	549	642.997755768662	13.186084340289
0	554	651.96308923386	21.440143018805
0	562	657.950257153538	25.244345636485
0	567	660.504189913728	27.247244725938
0	569	662.711752194871	21.850373983345
0	574	669.919236149956	18.185938307912
0	576	674.748300213764	19.457696767445
0	581	681.020950349562	23.576519692819
0	595	692.888007411038	32.681828323635
0	597	693.807036449657	25.91087902876
0	602	698.883102546816	20.308363270421
0	604	704.68338654159	18.983029608574
0	606	705.982544318721	20.028194437123
0	608	706.088146846733	17.133675492273
0	610	708.161066310213	16.371760523087
0	612	709.71685178192	11.845080539484
0	617	711.372393413419	1.016897565785
0	623	725.583199572143	0
0	633	733.538912960689	7.767693010802
0	641	743.178523522004	10.088499270467
0	643	750.95723456388	17.678237223824
0	651	761.754147239003	23.916779345195
0	656	768.604219843623	29.564057384043
0	658	769.003517588874	15.357446232322
0	666	796.345861656085	39.083936380152
0	674	804.220989310855	41.722497663252
0	676	804.913312703202	21.745381114867
0	678	812.517930720808	17.138367142362
0	680	815.65224356103	15.661725909066
0	682	816.433865739958	15.785619511714
0	688	826.37977627525	0
0	695	847.269450068524	15.448186332411
0	697	847.983602672768	8.258548324013
0	703	873.765523043569	0
0	707	884.000173121928	5.760973230742
0	724	893.439950096716	8.544148956003
0	732	900.223135083667	10.71912324998
0	737	905.820179360785	14.567687721746
0	739	906.859851703752	14.820241025832
0	744	913.809837967359	21.428836417419
0	752	925.126990972977	29.59973687276
0	760	932.315336322969	36.233403105451
0	762	932.804675257924	28.498773493231
0	764	933.272926875908	19.512216145077
0	766	935.493214469699	15.570356176756
0	768	936.515082870817	14.019668334001
0	770	938.664402699989	13.258211581924
0	775	956.877614594022	26.141470860743
0	777	958.158579460843	4.566085007845
0	782	969.182614384886	8.924253721493
0	788	975.744898448378	0
0	807	995.003855752941	18.608562774284
0	812	997.728526154709	18.93483971092
0	814	1004.728063299254	23.339302470601
0	816	1005.967312477707	18.75401449154
0	818	1006.105358917086	16.592662395957
0	820	1009.107602768371	14.525549033905
0	828	1011.895977655444	15.278238659099
0	830	1015.500446764064	5.471370676552
0	832	1016.470218720803	4.693502540347
0	843	1029.326592821805	8.164858314556
0	845	1031.640579016292	5.982751498827
0	847	1035.602352541557	7.027100230641
0	853	1041.299059179369	0
0	857	1047.751515872003	3.90835200632
0	863	1050.648564269664	0
0	868	1058.907706040234	0
0	873	1073.164855287501	0
0	878	1077.999028294279	0
0	883	1086.783439679444	0
0	888	1095.666626481139	0
0	892	1096.650662225279	0.15149364595
0	898	1100.002119745111	0
0	903	1117.575616010911	0
0	908	1121.919228227417	0
0	913	1128.626225023893	0
0	918	1132.929056736786	0
0	928	1144.680176399096	8.974891907715
0	930	1149.371556070907	9.378607492609
0	932	1151.411241926611	8.413355251886
0	946	1167.174001175441	13.452182530899
0	951	1177.170335560083	20.397611470499
0	956	1181.770259667883	21.936978328168
0	958	1182.025249131343	16.344700115183
0	960	1183.046324300746	8.933025353483
0	962	1185.24329366135	5.612494183465
0	968	1193.43764187842	0
0	973	1204.515045580045	0
0	978	1207.581880318025	0
0	982	1209.662074159521	1.825685994428
0	993	1222.889269734063	12.623287989787
0	995	1224.811694337151	10.761932894738
0	997	1227.809003866225	5.728149714161
0	1002	1231.817730743955	1.910928536243
0	1013	1251.790011412244	17.956832437697
0	1018	1256.036117393023	18.079977927544
0	1023	1262.447527399045	11.885739880827
0	1037	1282.849475777822	30.274048583889
0	1039	1283.957100542263	25.781904836211
0	1050	1294.335343895508	31.839539311783
0	1058	1315.557029515431	49.575509289248
0	1066	1326.899538175825	59.367149172136
0	1074	1333.983559760473	53.471464891112
0	1079	1341.730875770566	53.715200553747
0	1081	1342.342542584925	53.411182877556
0	1092	1346.577404863534	53.306993327517
0	1106	1369.1592770116	57.460921585788
0	1108	1369.7836712788	56.312835900099
0	1116	1373.890573462372	56.084421120924
0	1127	1375.479185565801	51.357391063751
0	1129	1377.99358077662	50.024096059473
0	1131	1379.507916818131	51.227376476778
0	1133	1386.285187409778	45.052591303246
0	1135	1388.716043976298	46.239608723107
0	1140	1394.453359757533	51.315802361023
0	1157	1411.900771273862	66.026009369207
0	1162	1421.929710255571	59.977504319732
0	1164	1422.690422702418	60.215944019661
0	1175	1432.686166086521	69.112337216487
0	1180	1437.167261251749	70.473975244851
0	1182	1438.596923931353	65.729954529488
0	1184	1439.307963474621	66.137073233597
0	1192	1448.36239465426	74.406868032832
0	1197	1453.987839642026	79.377330348223
0	1199	1455.601463854911	80.90142750644
0	1210	1465.757288465307	72.373110570157
0	1212	1468.276359269867	70.340766305335
0	1214	1468.965132784654	67.403779602737
0	1219	1474.732272132491	72.701620683669
0	1221	1475.78543177639	70.619243377949
0	1224	1481.809646116057	73.974868883166
0	1226	1495.687405437318	81.250488082774
0	1228	1495.960907927399	72.023136307386
0	1230	1500.715428122391	72.067326606774
0	1232	1503.247163184788	74.43833669095
0	1234	1503.358241878209	68.244804489051
0	1236	1508.001697887713	66.466434257944
0	1238	1514.422965288753	66.252803946772
0	1240	1532.569350470204	80.195880844544
0	1242	1535.504894297821	76.536819682524
0	1244	1539.58648073801	76.212216852935
0	1246	1540.802309132047	75.365879880694
0	1248	1546.613772244043	74.685213280138
1	5	3.254582421517	0.369164275866
1	19	18.623035150012	9.969400033905
1	21	21.04757742148	10.283927933039
1	26	29.674189186688	18.314567109689
1	34	33.730387816388	21.702115129365
1	36	42.560697184109	13.222021543922
1	38	45.530983689628	15.506445305663
1	40	46.168108983227	13.505495877495
1	45	61.314983664382	6.786019716975
1	56	79.069598272045	10.098829688075
1	61	90.699026872173	20.508206218344
1	72	95.939012618088	21.851676864817
1	74	100.31744773915	19.656207485095
1	76	100.941586262593	9.023508458475
1	99	120.735960696806	27.305265544587
1	104	125.026216013894	29.87038199935
1	109	125.976548586654	24.003909737168
1	126	141.822600289976	39.647569914918
1	128	143.349355097066	41.111189547857
1	130	144.102055265255	39.43677816978
1	138	151.426766271785	45.523831674009
1	140	158.589281980535	50.079465883601
1	145	169.515786074651	52.697245981239
1	150	173.489129649812	48.506131452574
1	155	181.724337331655	55.936860204268
1	160	182.066077531303	55.861771041449
1	165	185.829686232169	56.78120309892
1	173	189.396271906526	53.350834112897
1	175	189.613472502438	51.517620511381
1	183	204.12930383453	64.267367617355
1	191	211.563081572927	63.537931904263
1	211	228.974629966198	80.217516178363
1	213	229.908379281617	70.987416211587
1	215	233.492879545538	62.387913199167
1	220	238.556542921025	58.434575573838
1	222	239.820241198164	58.00090584802
1	227	244.149763693185	61.441098420125
1	235	248.903302551568	62.469109008493
1	243	253.468107773337	65.12438747603
1	245	253.662575154537	54.604003885083
1	247	256.456925936145	55.687409854805
1	249	261.996363004208	56.380212549141
1	251	268.238888957603	56.754950220684
1	259	288.312293018165	76.285361233148
1	261	292.411081461787	79.393406027254
1	266	293.988077824064	80.060540737248
1	268	295.484931858542	75.07407615238
1	273	303.519748530636	81.958020224653
1	281	308.105004783828	82.739132069575
1	286	316.387864572112	81.426737689809
1	288	329.845577552392	88.678347828155
1	290	332.962156491868	87.758302455574
1	292	337.841010306802	89.52500348671
1	294	345.870273939752	96.505984601099
1	296	347.384198976141	96.988188385509
1	298	353.369307481356	83.747964818829
1	303	356.673169017373	84.282893485052
1	311	365.485409420968	72.46688592566
1	313	373.262861141078	76.45052154143
1	315	375.838891633865	69.086379101745
1	320	381.364016557354	74.167119668429
1	322	384.876295011659	76.181071885567
1	324	406.728331481358	51.113433291086
1	326	411.525196062426	53.295092824223
1	328	412.802742356761	49.342702212557
1	336	416.695882513538	39.102646960272
1	341	423.594130923971	10.371582862634
1	343	423.907808527808	8.943793410117
1	348	426.116494312901	5.974940969187
1	350	426.238184399889	0.237815732579
1	358	433.033305231921	6.728191599027
1	360	436.205016569689	7.840708448419
1	377	460.665136201602	23.362115316327
1	382	462.735093354128	18.403600222971
1	384	464.622342410763	15.877537626973
1	389	468.354778132511	16.262472317784
1	391	485.143184592556	26.537831693813
1	396	489.353159639958	26.798922728588
1	398	490.854709890175	24.854067517857
1	403	494.915578415965	7.733440857607
1	414	509.746953017631	18.728651860932
1	416	510.173612356007	6.595635754206
1	418	510.445926598035	3.340386549629
1	420	513.485614470277	5.918588112708
1	428	514.957648344462	1.342524906634
1	430	515.727763199101	0.922660466061
1	441	532.407714345408	14.112812828037
1	458	544.724159957814	21.13505710437
1	460	550.893465392453	23.894539614225
1	462	550.915453500383	15.716622864441
1	467	556.035971744875	17.565395313375
1	472	557.935477940672	18.277685499491
1	483	565.299580661865	23.840731112235
1	485	567.137938019598	23.956162142086
1	496	579.340905347217	26.531120758265
1	504	590.759872843668	34.185525835971
1	506	595.828518865022	35.546628914984
1	511	598.374998329049	37.492879016907
1	516	604.739513832715	41.314227708025
1	521	617.654513053152	50.099549704435
1	535	633.837541021266	59.961598531096
1	537	633.938982237434	55.800947682597
1	539	634.712630360741	51.611642261752
1	541	637.370577468299	49.454673389578
1	546	640.925602329598	44.369461125709
1	548	642.22772044275	43.235269114293
1	550	642.997755768662	27.037413437549
1	555	651.96308923386	22.151417805487
1	563	657.950257153538	27.427310938483
1	568	660.504189913728	27.798278396675
1	570	662.711752194871	29.454807007081
1	575	669.919236149956	29.05785793843
1	577	674.748300213764	23.01500237172
1	582	681.020950349562	25.730346903243
1	596	692.888007411038	35.443576754295
1	598	693.807036449657	33.600857362254
1	603	698.883102546816	30.986945125919
1	605	704.68338654159	26.108647265195
1	607	705.982544318721	20.282187385705
1	609	706.088146846733	20.133796965135
1	611	708.161066310213	19.206594955753
1	613	709.71685178192	17.927545994794
1	618	711.372393413419	13.500622170983
1	620	723.495231233223	13.139735385589
1	634	733.538912960689	7.955713388546
1	642	743.178523522004	17.407303572117
1	644	750.95723456388	17.867210312343
1	652	761.754147239003	28.475149898947
1	657	768.604219843623	30.766851949815
1	659	769.003517588874	29.963355129294
1	667	796.345861656085	42.699790299533
1	675	804.220989310855	46.959064034922
1	677	804.913312703202	42.414821055599
1	679	812.517930720808	29.349999132473
1	681	815.65224356103	20.272679982584
1	683	816.433865739958	16.443348087994
1	685	824.743464006827	24.095217778583
1	696	847.269450068524	20.889673793274
1	698	847.983602672768	16.162338936655
1	700	851.547177623313	11.822123274558
1	708	884.000173121928	10.234650078359
1	725	893.439950096716	15.20075020553
1	733	900.223135083667	15.327333942954
1	738	905.820179360785	16.316167527098
1	740	906.859851703752	15.607360064713
1	745	913.809837967359	21.770227289439
1	753	925.126990972977	32.745989423037
1	761	932.315336322969	36.788082222752
1	763	932.804675257924	36.722742040406
1	765	933.272926875908	28.967025111215
1	767	935.493214469699	21.732503738868
1	769	936.515082870817	16.592224577874
1	771	938.664402699989	16.168988163173
1	776	956.877614594022	31.471423475957
1	778	958.158579460843	27.422435727564
1	783	969.182614384886	15.590119931888
1	785	969.214060377464	8.955699714071
1	808	995.003855752941	19.258957304563
1	813	997.728526154709	21.333233176052
1	815	1004.728063299254	25.934376855465
1	817	1005.967312477707	24.578551649054
1	819	1006.105358917086	18.892060930919
1	821	1009.107602768371	19.594906247242
1	829	1011.895977655444	17.313923920978
1	831	1015.500446764064	18.882707767719
1	833	1016.470218720803	6.441142633291
1	844	1029.326592821805	17.549876641349
1	846	1031.640579016292	10.478844509043
1	848	1035.602352541557	9.944525024092
1	850	1035.737767588651	7.162515277735
1	858	1047.751515872003	6.452456692634
1	860	1050.419290869431	6.576127003748
1	865	1053.028157608664	2.379593339
1	870	1070.773340254001	11.865634213767
1	875	1074.453010223201	1.2881549357
1	880	1082.743404692959	4.74437639868
1	885	1094.169541827841	7.386102148397
1	893	1096.650662225279	0.98403574414
1	895	1099.594298776191	3.095130196862
1	900	1106.851718436633	6.849598691522
1	905	1120.449366783924	2.873750773013
1	910	1125.694255506527	3.77502727911
1	915	1130.396486587008	1.770261563115
1	929	1144.680176399096	11.75111966231
1	931	1149.371556070907	13.666271579526
1	933	1151.411241926611	11.418293348313
1	947	1167.174001175441	24.176114500716
1	952	1177.170335560083	23.448516915541
1	957	1181.770259667883	24.997535578299
1	959	1182.025249131343	22.191967791628
1	961	1183.046324300746	17.365775284586
1	963	1185.24329366135	11.129994714087
1	965	1186.603902878851	6.973103400966
1	970	1194.070544129533	0.632902251113
1	975	1206.958135961405	2.44309038136
1	983	1209.662074159521	2.080193841496
1	994	1222.889269734063	15.05288156897
1	996	1224.811694337151	14.545712592875
1	998	1227.809003866225	13.759242423812
1	1003	1231.817730743955	9.736876591891
1	1014	1251.790011412244	21.883209204532
1	1019	1256.036117393023	22.202938418476
1	1024	1262.447527399045	24.491387933566
1	1038	1282.849475777822	32.287688259604
1	1040	1283.957100542263	31.38167334833
1	1051	1294.335343895508	36.160148189456
1	1059	1315.557029515431	53.061224931706
1	1067	1326.899538175825	60.918017949642
1	1075	1333.983559760473	66.451170756784
1	1080	1341.730875770566	61.218780901205
1	1082	1342.342542584925	54.326867368106
1	1093	1346.577404863534	57.646045156165
1	1107	1369.1592770116	75.888865475583
1	1109	1369.7836712788	58.085315852988
1	1117	1373.890573462372	60.419738083671
1	1128	1375.479185565801	57.673033224353
1	1130	1377.99358077662	53.87178627457
1	1132	1379.507916818131	51.538432100984
1	1134	1386.285187409778	58.004647068425
1	1136	1388.716043976298	47.483447869766
1	1141	1394.453359757533	51.976924504342
1	1158	1411.900771273862	68.763213877352
1	1163	1421.929710255571	76.054948350916
1	1165	1422.690422702418	60.738216766579
1	1176	1432.686166086521	70.211687403764
1	1181	1437.167261251749	73.593432381715
1	1183	1438.596923931353	71.903637924455
1	1185	1439.307963474621	66.440994072756
1	1193	1448.36239465426	75.191504413236
1	1198	1453.987839642026	80.032313020598
1	1200	1455.601463854911	80.990954561108
1	1211	1465.757288465307	91.057252116836
1	1213	1468.276359269867	74.892181374717
1	1215	1468.965132784654	71.029539820122
1	1220	1474.732272132491	73.170918950574
1	1222	1475.78543177639	73.754780327568
1	1225	1481.809646116057	76.643457717616
1	1227	1495.687405437318	87.852628204427
1	1229	1495.960907927399	81.523990572855
1	1231	1500.715428122391	76.777656502378
1	1233	1503.247163184788	74.599061669171
1	1235	1503.358241878209	74.549415384371
1	1237	1508.001697887713	72.888260498555
1	1239	1514.422965288753	72.887701658984
1	1241	1532.569350470204	84.399189128223
1	1243	1535.504894297821	83.131424672161
1	1245	1539.58648073801	80.618406122713
1	1247	1540.802309132047	77.428045246972
1	1249	1546.613772244043	81.17734299269
1	1251	1549.147801759305	77.2192427954
