version 2
run Testbench_1-995-20170516-19:20:50-58132
attr configname Testbench_1
attr datetime 20170516-19:20:50
attr experiment Testbench_1
attr inifile omnetpp.ini
attr iterationvars $0=250
attr iterationvars2 "$0=250, $repetition=95"
attr measurement $0=250
attr network Toll_road
attr processid 58132
attr repetition 95
attr replication #95
attr resultdir results
attr runnumber 995
attr seedset 995
param **.numBooths 3
param **.queue[*].serviceTime exponential(5.11s)
param **.source.interArrivalTime exponential(5.854s)
param **.source.numJobs 1000

vector 0  Toll_road.queue[0]  jobsProcessed:vector  ETV
attr interpolationmode  none
attr source  queueingTime
attr title  "jobs processed, vector"
vector 1  Toll_road.sink  lifeTime:vector  ETV
attr interpolationmode  none
attr title  "lifetime of arrived jobs, vector"
attr unit  s
0	3	2.633684548765	0
0	8	19.357341785776	0
0	13	32.268610084611	0
0	18	36.398559847661	0
0	23	39.682329881168	0
0	28	44.900333524268	0
0	32	49.606220471353	2.863887493712
0	37	61.185446622703	10.655074335569
0	43	68.356280919462	0
0	48	72.629659496345	0
0	52	78.046664320466	3.916794203984
0	58	79.049570853436	0
0	63	80.162748067832	0
0	68	92.829860425618	0
0	75	96.050634917947	2.123638520054
0	86	126.135990153994	30.859070093115
0	91	150.19739644578	49.78186196669
0	96	164.142564795607	59.683413746459
0	98	165.845177699531	53.814975554053
0	100	167.960988813025	20.297233364822
0	105	171.972359000447	13.202728164943
0	107	172.127696483879	1.771618596316
0	113	176.083705857362	0
0	123	186.237797417984	8.849156425548
0	128	189.199794453331	7.703733897697
0	130	193.933136469853	9.973573428055
0	132	194.975620283073	8.431653169561
0	138	196.758993681237	0
0	143	208.387228500727	0
0	148	212.563402245817	0
0	155	217.428643982447	4.636117326323
0	157	221.025388701656	5.942770909073
0	163	226.594825651707	0
0	167	234.116646875912	3.397699151964
0	173	242.433568722598	0
0	178	242.785335054802	0
0	183	249.962524014035	0
0	188	260.698315881986	0
0	195	266.874221374872	2.848229135457
0	209	276.398860776636	10.849458780539
0	214	282.208388265891	14.460846093699
0	216	287.799850013388	18.5386084648
0	218	288.415913755885	18.226992292074
0	223	291.698576798935	21.475276067405
0	225	291.917396435652	11.213647753095
0	227	294.451948987783	5.035060135301
0	232	303.135581544366	8.194600451626
0	243	319.805585112041	12.146381805268
0	245	319.833364267449	10.216796389827
0	247	321.421085121574	4.993733731076
0	258	329.879799331494	6.726215272026
0	260	331.057100188145	6.531483077974
0	262	333.486844787095	5.861266505414
0	268	344.718548903022	0
0	273	350.158050392429	0
0	283	354.675445754719	3.176777236813
0	294	363.022654864778	11.258435779013
0	299	369.986864013083	17.37454051476
0	310	391.175498884759	30.975438144417
0	324	397.61155773995	36.754771980679
0	326	402.722616827498	39.895335527929
0	331	414.011104361102	50.179083391449
0	333	417.469225075034	42.843046495703
0	335	417.823725110056	38.738082223302
0	337	422.229693164191	39.680552502614
0	342	422.861367851784	27.706909674017
0	347	427.004971369662	31.51520239984
0	352	431.848966800648	34.353133010942
0	357	436.818529569055	39.291479489621
0	359	437.337240962263	31.324741268633
0	364	447.370690823095	24.7582533329
0	369	455.131804255855	31.769568495461
0	377	462.017718996735	34.734910221144
0	379	464.465425285016	29.005048069289
0	381	466.09404248109	25.385555080531
0	386	469.118390087978	20.867030529163
0	388	470.296597921457	10.758351218285
0	390	471.918622856384	10.428685002979
0	392	472.371981625181	4.881984018949
0	400	477.696978571491	4.820983505176
0	402	482.861558855224	9.14158822819
0	407	484.75873338081	1.06644497065
0	413	498.051689476018	0
0	417	503.135077197191	0.171681955816
0	422	504.356471948415	0.21289857931
0	428	509.081160591696	0
0	433	513.587276952385	0
0	437	521.317928100771	7.013363043464
0	443	522.144622719232	0
0	448	533.152547948254	0
0	452	542.122211060286	3.857489344602
0	469	555.937523622219	7.828373695915
0	474	565.554776195193	17.108320540078
0	476	565.88508408071	17.153644060087
0	478	569.335842959346	19.332011902859
0	483	577.938369599798	24.602047308731
0	488	584.286763261063	21.858462315176
0	499	600.208918296026	28.232679503635
0	507	623.713225133231	43.707370380989
0	509	625.876198394597	38.570396441864
0	511	626.692891173159	36.817694363636
0	516	631.181080591858	38.580822652729
0	524	640.161397376159	39.688473686995
0	532	651.590128967242	43.620263833334
0	534	653.95448210369	27.003633069149
0	545	656.447286198018	23.468402342892
0	556	664.102735867808	24.180570695382
0	558	670.940110786112	29.609315457022
0	563	675.967046678086	29.548772415423
0	571	681.239640249458	26.28187138528
0	576	682.33341563989	27.328595646578
0	578	687.169096765583	31.826483556477
0	580	690.832478923832	31.487365831962
0	582	693.421835617213	32.632601896889
0	587	695.489873135387	34.382968412386
0	589	695.510632098586	23.391604654757
0	597	699.63652201348	20.790108083406
0	602	700.491710808604	19.844466261107
0	613	711.497811232981	29.869095339603
0	615	715.525237939764	20.802917837125
0	623	729.892862647033	34.118248308614
0	631	736.263961970341	38.819624193459
0	633	741.200092885847	40.872476855142
0	635	741.888603060874	40.793745415644
0	640	747.62475443934	45.45592477727
0	645	751.492436000572	49.262176946328
0	647	758.504650079961	37.702694975758
0	652	761.005941031852	33.850694864917
0	657	769.668702494988	37.082504089389
0	659	771.597014424831	37.055478032347
0	664	779.780932544615	33.324045016413
0	687	799.049851813617	49.258232150141
0	695	806.597474559612	47.409400880114
0	697	810.90638762215	42.66776800449
0	702	818.611778994092	41.264094830019
0	704	820.518238629134	40.682915955076
0	706	820.889121194148	39.2645218228
0	717	825.477621261937	43.706739410686
0	719	826.15896245109	40.782132022769
0	721	830.286544930013	42.567552333483
0	723	830.879921537562	40.944418020516
0	725	835.058277896071	39.571853992195
0	730	842.574377240971	43.41397508883
0	732	853.334352602479	47.414534073691
0	743	858.690161261857	43.45934946723
0	745	860.594839941679	38.978521182421
0	747	861.392578814254	38.678957090239
0	752	867.343402076933	43.306164364377
0	754	867.693371799567	28.071754063799
0	756	869.142301014336	11.76190162051
0	761	874.598034690797	17.126367335173
0	763	878.184984742869	20.7121325014
0	765	878.939530778731	12.405638112329
0	770	891.853405452293	22.458668457528
0	772	893.986759135788	8.677400217994
0	778	899.11469776632	0
0	782	908.442794202522	3.059958082975
0	788	915.075152595987	0
0	792	920.034876792754	4.480745802586
0	797	927.357653586972	1.400343741949
0	803	934.879357414582	0
0	807	935.311132449256	0.141710486739
0	812	936.681427391708	0.423675581853
0	818	937.200196878913	0
0	828	939.988886360825	0.832159507171
0	830	942.561359469592	2.872427434797
0	832	942.76205376023	2.919676625762
0	838	966.142431919588	0
0	843	981.801991610233	0
0	848	996.186829937476	0
0	853	1010.524469969004	0
0	860	1013.916329508049	2.814970102938
0	874	1025.698368665285	14.286993711138
0	876	1027.297003101542	9.492084740542
0	881	1031.565118276121	11.605724255093
0	883	1033.042382373468	12.530257584879
0	885	1035.058930244372	9.551520061311
0	890	1044.18297672274	13.985387902042
0	898	1051.595533335022	15.768765004248
0	906	1065.852727273552	20.305130612052
0	908	1065.987319849002	17.276585544664
0	919	1086.306788415456	28.464700844257
0	921	1091.160596742335	28.641567496571
0	923	1092.078857283536	23.539533747663
0	928	1102.541068121304	26.068282958108
0	933	1107.640692570799	24.701033499105
0	947	1113.624732818231	14.600805838351
0	949	1114.639163173805	7.86390967633
0	957	1119.837959040668	9.598243334684
0	959	1119.937888035596	9.674466214685
0	961	1121.711040329857	9.050775875792
0	969	1127.80012066567	14.574077220472
0	974	1135.054023349629	17.551132962947
0	985	1146.269405947646	26.758251627699
0	990	1152.299416182967	28.952359445618
0	995	1156.552896399781	29.159314773529
0	1003	1168.280799303298	36.697068262458
0	1005	1168.356919463186	32.223050481934
0	1007	1171.639274317627	27.714850135334
0	1018	1192.831199250215	48.196002765596
0	1035	1206.505375560071	58.32609103875
0	1052	1228.891885609979	72.47597111679
0	1057	1234.121878329384	72.702327878289
0	1062	1238.046450710186	70.22553331329
0	1067	1240.568225353684	66.880553964905
0	1072	1243.988636780193	63.139088177648
0	1074	1244.964193239034	52.228308651392
0	1082	1254.059279939906	59.843358207467
0	1084	1255.205327157049	56.934762926521
0	1095	1269.187229229273	69.794070735926
0	1106	1279.578086109108	77.39112063716
0	1108	1279.683345694367	75.830626116688
0	1113	1284.607382035812	66.383535589687
0	1118	1292.369674048303	72.179686277164
0	1120	1293.146465810223	69.865511791126
0	1122	1298.598534790067	72.370678114115
0	1124	1298.604697257764	70.480799909521
0	1126	1299.113259132897	66.76787486697
0	1134	1303.011111678824	66.887486314102
0	1142	1307.191705036788	68.546985551154
0	1144	1312.066165295814	68.677997731869
0	1146	1313.306642547989	65.217961164837
0	1148	1314.279226404497	60.975071384391
0	1153	1318.695128931913	54.292564657704
0	1155	1320.807213096775	55.101611336783
0	1163	1332.683690901025	65.530262144363
0	1165	1348.043756494787	78.197695388184
0	1167	1348.399291514601	77.872297943484
0	1169	1349.512074227979	70.676882871223
0	1171	1354.936966936081	72.987120397669
0	1179	1362.584217346937	71.336017508049
0	1181	1362.624097185799	60.531305770278
0	1183	1367.729364984161	65.205781543538
0	1191	1376.712058792508	71.294947795519
0	1196	1378.138516209273	72.331693888423
0	1201	1388.930424192881	70.339348092773
0	1206	1391.581135406766	68.887641489462
0	1208	1391.862333620348	67.182305698287
0	1210	1393.372512165802	31.354718661825
0	1212	1395.975129808011	33.622884427038
0	1214	1396.569667106913	24.451572557601
0	1216	1412.654905267037	37.0441159062
0	1224	1420.237277067302	43.369380004014
0	1235	1423.301118054794	35.427536053778
0	1237	1425.895649196135	35.532851944854
0	1240	1430.975339515797	11.503480353838
0	1242	1448.68552665921	28.809131458935
0	1244	1454.248474450248	32.702382823151
0	1246	1465.431380032568	42.779215218901
0	1248	1467.154845082956	44.239023481012
1	5	2.763637691401	0.129953142636
1	10	19.57066593647	0.213324150694
1	15	33.558000328391	1.28939024378
1	20	36.761980458447	0.363420610786
1	25	40.026950637621	0.344620756453
1	33	49.606220471353	4.705886947085
1	38	61.185446622703	14.443113645062
1	40	63.609894132975	13.079521845841
1	45	69.178914058756	0.822633139294
1	53	78.046664320466	5.417004824121
1	55	78.512015915377	4.382145798895
1	60	80.090415145959	1.040844292523
1	65	83.620417549889	3.457669482057
1	76	96.050634917947	3.220774492329
1	87	126.135990153994	32.208993756101
1	92	150.19739644578	54.920476384901
1	97	164.142564795607	63.727030316517
1	99	165.845177699531	61.386026650383
1	101	167.960988813025	55.930786667547
1	106	171.972359000447	24.308603552244
1	108	172.127696483879	13.358065648375
1	110	175.907263769797	5.551185882234
1	124	186.237797417984	10.154091560622
1	129	189.199794453331	11.811153460895
1	131	193.933136469853	12.437075914219
1	133	194.975620283073	11.016057241275
1	135	195.646238386091	9.102271272579
1	140	200.059474060249	3.300480379012
1	145	211.316265348176	2.929036847449
1	156	217.428643982447	4.86524173663
1	158	221.025388701656	8.232862045532
1	160	221.877825398541	6.795207605958
1	168	234.116646875912	7.521821224205
1	170	237.270677388913	6.551729664965
1	175	242.648232316618	0.21466359402
1	180	246.747245283045	3.961910228243
1	185	251.725898471604	1.763374457569
1	196	266.874221374872	6.175905492886
1	210	276.398860776636	12.372868537221
1	215	282.208388265891	16.658986269794
1	217	287.799850013388	20.052307841196
1	219	288.415913755885	19.154672207297
1	224	291.698576798935	21.509655335124
1	226	291.917396435652	21.694095704122
1	228	294.451948987783	13.748200305226
1	233	303.135581544366	13.718692691884
1	244	319.805585112041	24.864604019301
1	246	319.833364267449	12.174160960676
1	248	321.421085121574	11.804517243952
1	259	329.879799331494	13.452447940996
1	261	331.057100188145	7.903516128677
1	263	333.486844787095	8.961227676924
1	265	337.707789711783	10.082211430102
1	270	345.187288679175	0.468739776153
1	284	354.675445754719	4.51739536229
1	295	363.022654864778	11.523986346872
1	300	369.986864013083	18.222644927318
1	311	391.175498884759	38.563175386436
1	325	397.61155773995	37.411496999608
1	327	402.722616827498	41.865831068227
1	332	414.011104361102	51.183823061533
1	334	417.469225075034	53.637204105381
1	336	417.823725110056	43.197546530725
1	338	422.229693164191	43.144050277437
1	343	422.861367851784	40.312227190207
1	348	427.004971369662	31.850513191895
1	353	431.848966800648	36.359197830826
1	358	436.818529569055	39.322695779349
1	360	437.337240962263	39.810190882829
1	365	447.370690823095	41.358191129465
1	370	455.131804255855	32.51936676566
1	378	462.017718996735	38.655483236341
1	380	464.465425285016	37.182616509425
1	382	466.09404248109	30.633665265363
1	387	469.118390087978	28.409902687419
1	389	470.296597921457	22.045238362642
1	391	471.918622856384	12.380376153212
1	393	472.371981625181	10.882043771776
1	401	477.696978571491	10.206980965259
1	403	482.861558855224	9.985563788909
1	408	484.75873338081	11.038762753776
1	410	490.071244722562	6.378956312402
1	418	503.135077197191	5.083387721173
1	423	504.356471948415	1.39307670704
1	425	507.550658242453	3.407084873348
1	430	509.976130101416	0.89496950972
1	438	521.317928100771	7.730651148386
1	440	521.778425182781	7.473860125474
1	445	525.966803471414	3.822180752182
1	453	542.122211060286	8.969663112032
1	470	555.937523622219	17.672801906535
1	475	565.554776195193	17.445626268889
1	477	565.88508408071	17.438628425595
1	479	569.335842959346	20.604402938723
1	484	577.938369599798	27.934538543311
1	489	584.286763261063	30.950440969996
1	500	600.208918296026	37.780617350139
1	508	623.713225133231	51.73698634084
1	510	625.876198394597	45.870343642355
1	512	626.692891173159	39.387089220426
1	517	631.181080591858	41.305883782335
1	525	640.161397376159	47.56113943703
1	533	651.590128967242	51.117205278078
1	535	653.95448210369	45.984616969782
1	546	656.447286198018	29.496437163477
1	557	664.102735867808	31.123852012682
1	559	670.940110786112	31.017945613686
1	564	675.967046678086	34.636251348996
1	572	681.239640249458	34.821365986795
1	577	682.33341563989	27.375646775712
1	579	687.169096765583	32.164276772271
1	581	690.832478923832	35.489865714726
1	583	693.421835617213	34.076722525343
1	588	695.489873135387	34.700639415063
1	590	695.510632098586	34.403727375585
1	598	699.63652201348	27.517494569651
1	603	700.491710808604	21.64529687853
1	614	711.497811232981	30.850566685484
1	616	715.525237939764	33.896522046386
1	624	729.892862647033	35.170542544394
1	632	736.263961970341	40.489347631922
1	634	741.200092885847	43.755755108965
1	636	741.888603060874	41.560987030169
1	641	747.62475443934	46.52989679411
1	646	751.492436000572	49.323606338502
1	648	758.504650079961	56.274391025717
1	653	761.005941031852	40.203985927649
1	658	769.668702494988	42.513456328053
1	660	771.597014424831	39.010816019232
1	665	779.780932544615	45.239396152131
1	688	799.049851813617	52.592964285415
1	696	806.597474559612	56.805854896136
1	698	810.90638762215	51.718313942652
1	703	818.611778994092	50.373159376432
1	705	820.518238629134	43.170554465061
1	707	820.889121194148	41.05379852009
1	718	825.477621261937	43.853021890589
1	720	826.15896245109	44.388080599839
1	722	830.286544930013	44.909714501692
1	724	830.879921537562	43.160928941032
1	726	835.058277896071	45.122774379025
1	731	842.574377240971	47.087953337095
1	733	853.334352602479	54.173950450338
1	744	858.690161261857	52.770342733069
1	746	860.594839941679	45.364028147052
1	748	861.392578814254	39.776260054996
1	753	867.343402076933	44.629780352918
1	755	867.693371799567	43.656134087011
1	757	869.142301014336	29.520683278568
1	762	874.598034690797	17.217635296971
1	764	878.184984742869	20.713317387245
1	766	878.939530778731	21.466678537262
1	771	891.853405452293	25.319512785891
1	773	893.986759135788	24.592022141023
1	775	895.756603952917	10.447245035123
1	783	908.442794202522	9.328096436202
1	785	910.299532586706	4.916696467159
1	793	920.034876792754	4.959724196767
1	798	927.357653586972	11.803522596804
1	800	933.232692074251	7.275382229228
1	808	935.311132449256	0.431775034674
1	813	936.681427391708	1.512005429191
1	815	936.975035562798	0.717283752943
1	829	939.988886360825	2.788689481912
1	831	942.561359469592	3.404632615938
1	833	942.76205376023	3.073121725435
1	835	955.68133362217	15.838956487702
1	840	974.734685750912	8.592253831324
1	845	984.149428027839	2.347436417606
1	850	1004.522451278087	8.335621340611
1	861	1013.916329508049	3.391859539045
1	875	1025.698368665285	14.597009260174
1	877	1027.297003101542	15.885628147395
1	882	1031.565118276121	13.760199915121
1	884	1033.042382373468	13.08298835244
1	886	1035.058930244372	14.546805455783
1	891	1044.18297672274	18.675566539679
1	899	1051.595533335022	21.397944514324
1	907	1065.852727273552	30.025958942778
1	909	1065.987319849002	20.439723187502
1	920	1086.306788415456	37.596054111118
1	922	1091.160596742335	33.318509171136
1	924	1092.078857283536	29.559828037772
1	929	1102.541068121304	34.001744585431
1	934	1107.640692570799	31.167907407603
1	948	1113.624732818231	30.685073746537
1	950	1114.639163173805	15.615236193925
1	958	1119.837959040668	13.062705543193
1	960	1119.937888035596	9.698172329612
1	962	1121.711040329857	11.447618508946
1	970	1127.80012066567	15.139856211605
1	975	1135.054023349629	21.827979904431
1	986	1146.269405947646	28.766515560964
1	991	1152.299416182967	32.78826186302
1	996	1156.552896399781	33.205839662432
1	1004	1168.280799303298	40.887217677046
1	1006	1168.356919463186	36.773188422346
1	1008	1171.639274317627	35.505405336375
1	1019	1192.831199250215	48.906775067922
1	1036	1206.505375560071	61.870179075452
1	1053	1228.891885609979	80.712601088658
1	1058	1234.121878329384	77.705963836195
1	1063	1238.046450710186	76.626900259091
1	1068	1240.568225353684	72.747307956788
1	1073	1243.988636780193	70.300965391414
1	1075	1244.964193239034	64.114644636489
1	1083	1254.059279939906	61.323395352264
1	1085	1255.205327157049	60.98940542461
1	1096	1269.187229229273	70.916664998745
1	1107	1279.578086109108	80.184927615761
1	1109	1279.683345694367	77.496380222419
1	1114	1284.607382035812	80.754662458133
1	1119	1292.369674048303	74.145827602178
1	1121	1293.146465810223	72.956478039084
1	1123	1298.598534790067	75.31758077097
1	1125	1298.604697257764	72.376840581812
1	1127	1299.113259132897	70.989361784654
1	1135	1303.011111678824	70.665727412897
1	1143	1307.191705036788	71.068079672066
1	1145	1312.066165295814	73.42144581018
1	1147	1313.306642547989	69.918474984044
1	1149	1314.279226404497	66.190545021345
1	1154	1318.695128931913	65.390973911807
1	1156	1320.807213096775	56.404648822566
1	1164	1332.683690901025	66.978089141033
1	1166	1348.043756494787	80.890327738125
1	1168	1348.399291514601	78.553230407998
1	1170	1349.512074227979	78.985080656862
1	1172	1354.936966936081	76.101775579325
1	1180	1362.584217346937	80.634370808525
1	1182	1362.624097185799	71.375897346911
1	1184	1367.729364984161	65.63657356864
1	1192	1376.712058792508	74.188475351885
1	1197	1378.138516209273	72.721405212284
1	1202	1388.930424192881	83.123601872031
1	1207	1391.581135406766	72.990059306658
1	1209	1391.862333620348	69.168839703044
1	1211	1393.372512165802	68.692484243741
1	1213	1395.975129808011	33.957336304034
1	1215	1396.569667106913	34.21742172594
1	1217	1412.654905267037	40.536810717725
1	1225	1420.237277067302	44.626487706465
1	1236	1423.301118054794	46.433220991506
1	1238	1425.895649196135	38.022067195119
1	1241	1430.975339515797	40.612542264516
1	1243	1448.68552665921	29.213667497251
1	1245	1454.248474450248	34.372079249973
1	1247	1465.431380032568	43.885288405471
1	1249	1467.154845082956	44.502680269289
1	1251	1471.390992978898	48.475171376954
