version 2
run Testbench_1-1523-20170516-19:23:39-59592
attr configname Testbench_1
attr datetime 20170516-19:23:39
attr experiment Testbench_1
attr inifile omnetpp.ini
attr iterationvars $0=400
attr iterationvars2 "$0=400, $repetition=23"
attr measurement $0=400
attr network Toll_road
attr processid 59592
attr repetition 23
attr replication #23
attr resultdir results
attr runnumber 1523
attr seedset 1523
param **.numBooths 3
param **.queue[*].serviceTime exponential(5.11s)
param **.source.interArrivalTime exponential(5.854s)
param **.source.numJobs 1000

vector 0  Toll_road.queue[0]  jobsProcessed:vector  ETV
attr interpolationmode  none
attr source  queueingTime
attr title  "jobs processed, vector"
vector 1  Toll_road.sink  lifeTime:vector  ETV
attr interpolationmode  none
attr title  "lifetime of arrived jobs, vector"
attr unit  s
0	3	5.699986298898	0
0	8	9.614140589926	0
0	15	12.930672172959	2.349403036558
0	17	21.111496980609	10.148309643517
0	28	28.479737333454	7.103319178619
0	30	32.081567583289	7.563750703374
0	47	53.704843384997	27.256962594115
0	55	59.539643894099	20.511769751935
0	57	61.915030237832	22.486194905206
0	71	74.234984629363	31.007122202927
0	73	75.840618705383	31.569087625885
0	78	80.157567923343	33.673906494717
0	83	85.308658062634	29.226232489136
0	88	90.741809352282	32.073206206896
0	90	107.226723312551	43.425811469052
0	104	122.943508937784	56.207593024016
0	121	142.911784627929	73.720078092194
0	123	145.484289385236	74.654330700628
0	125	145.893704195387	68.616926312155
0	127	146.991829439092	62.276692437172
0	129	148.890998475444	59.327189102454
0	131	149.497563568193	40.706574610184
0	133	150.174107569802	40.728352781704
0	138	173.079014356942	61.308386563041
0	140	178.377765070935	59.041837553487
0	145	179.871275333715	55.882062573691
0	147	182.277565904863	54.631993887405
0	149	185.486163445765	48.537268879154
0	157	193.367053853001	56.257311179072
0	159	194.237115149702	51.786624338313
0	167	209.864864981261	39.652420181602
0	175	216.456806447872	37.494881574409
0	177	218.373946659601	29.073615100902
0	179	218.914174272667	26.262119093666
0	184	219.414921947165	21.201400902631
0	189	221.782112999489	15.720340990924
0	191	222.576907975167	11.948357763499
0	193	228.614555092463	16.532781215347
0	195	231.548777527221	12.598353820391
0	197	235.102261411577	15.156087151742
0	202	235.238459549915	0.038689957564
0	210	247.140787226564	8.956785945017
0	212	250.827810055916	3.727077987002
0	217	261.47691938703	10.452181821604
0	223	278.148340469997	0
0	227	288.039085708014	9.19014923034
0	233	292.476961563008	0
0	238	298.402013562608	0
0	245	307.916550804576	6.479720059099
0	247	310.864517666492	2.991537762961
0	253	317.381081100286	0
0	257	317.590599990253	0.021153836024
0	263	320.029577299181	0
0	268	321.73264804304	0
0	273	323.811711516974	0
0	278	327.961923766149	0
0	285	333.259875427093	3.712885939264
0	287	338.539351356017	6.34712020923
0	298	347.535091498064	8.248875993109
0	300	347.700477040145	7.704239202467
0	302	350.014370198448	6.553094052231
0	308	355.06616487527	0
0	321	374.735686370532	17.427168072613
0	323	374.909092805049	17.550756590386
0	325	377.540380258124	20.033224357912
0	330	378.475117850225	10.125395620208
0	335	390.946981845666	12.864368611209
0	337	397.978750242372	18.964623788378
0	343	403.074069028375	0
0	347	408.877502467075	5.399968267875
0	353	409.671510432944	0
0	360	411.887734978762	1.910055984492
0	365	422.527772947581	12.243998856086
0	367	423.419889632034	8.173838779612
0	373	432.96753988052	0
0	377	434.780912459151	0.974458666869
0	383	445.49652704894	0
0	388	449.609054579981	0
0	393	480.881958384887	0
0	397	487.235486759195	3.180744841588
0	403	496.803629067247	0
0	408	505.466662911677	0
0	413	521.490331264803	0
0	418	530.103787625908	0
0	422	531.728264639744	0.26006988164
0	427	536.641720088452	4.197298280144
0	432	547.053151049337	5.21702405107
0	438	562.772577315489	0
0	445	571.983864592152	9.192616676888
0	447	575.196178748064	9.75149434132
0	453	589.551418240913	0
0	481	616.229232987808	20.497789210609
0	483	617.223684929088	19.26240229757
0	485	617.411083344044	15.963697376041
0	487	618.99569099074	15.497989628382
0	489	629.6949471415	24.456195123129
0	491	630.654110240639	24.551583779268
0	502	633.392716118501	24.523380269227
0	504	635.347762846293	22.870728925909
0	524	655.978844253954	42.270540473482
0	526	656.915305418835	24.582153932976
0	528	657.745822608416	24.547167268598
0	533	662.424101092095	29.082213182216
0	535	667.190617194008	27.605347625755
0	540	672.886839465777	32.891828263574
0	545	684.896170539045	41.303125157613
0	547	686.649602826886	37.32476477191
0	558	694.483172324663	42.483866070827
0	560	695.110799510148	41.719281002113
0	562	699.794929008797	39.95937211427
0	564	700.092055573499	31.4946424583
0	566	700.44624930918	19.914348193483
0	571	710.49664793509	23.84671920031
0	573	712.212251343662	22.638729830374
0	578	719.915775471701	27.85075533651
0	589	731.73778843734	25.101152142033
0	591	733.54558831728	18.17006157166
0	596	741.425827058593	17.021128278207
0	598	743.0460823	18.122540520768
0	600	743.44926761317	11.717954232477
0	608	750.421378421816	10.670851077122
0	613	758.67439691466	15.186350011758
0	618	772.126369982341	26.479387472321
0	620	773.552681818945	17.505638981383
0	631	780.335774849722	9.993129136726
0	633	782.00868526114	6.641390244465
0	635	801.747598158943	23.654475408183
0	640	808.900390986437	29.548299734463
0	645	813.988514113931	6.755346522122
0	647	819.824040494192	6.377503024417
0	653	824.562227314297	0
0	658	828.172686429839	0
0	663	835.804738095539	0
0	668	855.215586478993	0
0	672	863.547544457686	4.396580560756
0	678	864.662998094164	0
0	682	870.474857121517	0.766911998062
0	688	879.609409902216	0
0	693	887.701692075916	0
0	697	894.49432199051	5.057683651598
0	703	899.163316655711	0
0	707	906.433696393816	6.361613067107
0	713	917.584191526717	0
0	718	922.927503657741	0
0	722	927.098086079102	2.738338279246
0	728	929.121580331604	0
0	732	939.546225985787	9.881945010031
0	737	952.876829863202	4.219746734451
0	743	954.563019964494	0
0	747	961.747542086531	6.081606209846
0	752	964.7717845215	2.071630111402
0	760	975.597136961191	4.428173354581
0	765	977.095471049373	4.922133362749
0	767	990.000252955866	13.915476274392
0	772	994.915738076488	2.403291333347
0	783	1007.119657999551	6.694107582461
0	788	1029.339480243543	26.291619989749
0	790	1029.825880254362	25.768302990405
0	795	1034.16940854597	20.31082152934
0	797	1034.205700474069	3.978759746839
0	803	1042.685186292162	0
0	808	1044.528365220462	0
0	813	1062.42425375167	0
0	818	1065.114158862533	0
0	822	1072.928394668486	0.345755745053
0	828	1079.592629596059	0
0	835	1083.874916433214	4.164360629913
0	837	1089.080167651025	8.647662488345
0	843	1100.121116681989	0
0	850	1108.682194981512	8.110398587631
0	852	1115.320065987459	10.771870713338
0	857	1129.675582128547	1.267810523974
0	863	1137.116676680793	0
0	868	1152.381849300273	0
0	872	1153.975114045191	1.449460690097
0	878	1156.583771523059	0
0	883	1161.051759123775	0
0	887	1163.047005609955	0.746736863886
0	893	1176.068342099874	0
0	909	1193.179702756976	10.640346862286
0	917	1201.007740109384	14.395201185675
0	922	1205.765847035715	18.818322722109
0	924	1206.51978780054	18.496353414365
0	926	1210.12980995554	19.618491669698
0	928	1210.174916043922	14.628911180026
0	930	1210.533523096871	10.243616351677
0	932	1211.220379308836	6.183273333498
0	938	1236.596636258503	0
0	945	1241.415815941127	4.262843108852
0	953	1251.41697624589	12.841293661375
0	955	1254.795569929819	8.429378042428
0	963	1260.507549674421	11.275580782524
0	968	1266.981566435804	10.265381998815
0	973	1267.40734105316	9.03306539234
0	978	1267.948745305151	7.074320567402
0	980	1272.639391815616	5.451020139797
0	985	1279.445628702733	11.677579490253
0	987	1284.424077192999	9.276757853416
0	993	1290.22728672039	0
0	997	1292.807959696089	1.819593104124
0	1003	1296.827060800943	0
0	1008	1299.872268691633	0
0	1013	1305.170156468944	0
0	1020	1309.151284119409	3.320629998887
0	1031	1316.461036474464	9.900866545836
0	1033	1320.675749307301	5.221165219476
0	1035	1320.844250170272	4.944928439712
0	1037	1322.433628710129	6.257337568471
0	1042	1324.703104455721	0.36882467159
0	1053	1333.871634709383	5.002929341507
0	1058	1336.569970430947	4.484131948167
0	1063	1339.867154553441	6.665948462089
0	1068	1344.320982845765	10.332534240615
0	1070	1344.820807464419	7.56327239579
0	1075	1349.545091096827	5.335624189362
0	1086	1360.13642068567	13.207432783662
0	1088	1362.892449046422	11.228681214571
0	1090	1363.118269053935	9.478107911892
0	1095	1365.324698117998	10.458157113661
0	1100	1368.144457154567	4.698777138294
0	1102	1369.87305005817	2.288633686202
0	1113	1384.02106928954	13.961610632655
0	1115	1385.938979036149	12.941158547569
0	1117	1388.438409280779	6.194878878692
0	1122	1392.910514749373	4.354690275097
0	1130	1403.048272864818	0.745777092278
0	1135	1403.859965845991	0.884248227721
0	1137	1404.574079219385	1.437949744955
0	1145	1412.14209122065	5.135781060129
0	1156	1419.623038081179	11.826103300901
0	1158	1420.171967906015	7.691990665742
0	1163	1423.414100815469	10.527825739411
0	1165	1425.12420766655	9.486163424002
0	1167	1425.166324618082	4.335714280465
0	1173	1434.281097879615	0
0	1177	1441.862543167424	1.213398896454
0	1185	1463.995368025454	15.714824973306
0	1190	1465.298951897398	14.535037455811
0	1195	1470.192597510838	6.16490072352
0	1200	1474.249644574812	4.374292401903
0	1202	1475.549623220726	4.421412385334
0	1208	1483.962892877448	0
0	1212	1485.496655712614	1.075410153245
0	1218	1494.387831894988	0
0	1225	1515.575499907197	17.630449877576
0	1227	1523.441892184875	22.851186445174
0	1235	1528.047128362542	2.905004860033
0	1243	1532.251057557715	6.184065620264
0	1245	1535.719203198214	4.297564884991
0	1265	1562.303503441005	30.215482102604
0	1267	1568.622179266366	32.186448973514
0	1272	1581.296908187798	29.979571757565
0	1283	1591.562262113229	36.580478645061
0	1285	1597.784517756411	38.400337511591
0	1296	1609.611194375207	49.589875274274
0	1298	1611.347328786488	49.119343604219
0	1303	1616.008174868513	42.092896955421
0	1305	1622.194706978548	38.359529011129
0	1319	1635.717094477732	51.577394664634
0	1321	1635.992975725991	48.026116530375
0	1329	1640.59179080497	42.714589265463
0	1331	1641.170411703315	39.126457200402
0	1333	1644.469154099373	40.825276149571
0	1341	1658.881765888838	46.071542892507
0	1343	1664.678814755333	40.095494226722
0	1345	1666.729096855149	40.524000625254
0	1347	1668.334676969025	41.393762010751
0	1349	1669.026398172042	33.403661369382
0	1363	1698.62445772171	61.535349797264
0	1365	1699.574112714875	60.136531753308
0	1367	1700.918227572853	50.961831763383
0	1369	1704.397706202867	52.87712624404
0	1377	1707.827034027686	37.279586793254
0	1379	1709.01177608718	27.898290660962
0	1393	1733.25042164343	43.296335759327
0	1398	1736.329578467467	46.122444004151
0	1400	1736.418478452481	31.657821644045
0	1411	1749.586026625268	43.180573444967
0	1416	1752.797637315897	43.629040810253
0	1421	1760.454765611418	49.763644758745
0	1423	1760.544146311426	45.881473249874
0	1431	1764.552280776116	39.089268355944
0	1433	1769.067817346831	35.005359301482
0	1441	1777.005312793543	39.53445400628
0	1443	1779.812296598874	37.272466662809
0	1457	1790.973669184254	45.782756204844
0	1465	1794.136579022131	44.283716623959
0	1470	1799.354608635631	45.367498848273
0	1481	1819.916143028409	58.219416206796
0	1483	1820.233626390703	56.224501869251
0	1488	1830.01787554044	57.34322734747
0	1490	1841.805900985005	65.503752961463
0	1495	1847.031925265417	67.030146238924
0	1497	1848.661196908622	62.669225726094
0	1499	1850.99770627899	62.600641490612
0	1501	1861.943649959779	72.005343307474
0	1503	1863.750565359316	71.032200794683
0	1505	1864.455155522237	71.198841016559
0	1513	1868.034078758379	70.472291554505
0	1518	1872.571608000511	61.986651747437
0	1520	1872.799041814001	61.662980636238
0	1522	1879.660246994505	65.597947130376
0	1536	1889.066089208779	60.734674797799
0	1538	1889.358456735709	44.064589341546
0	1540	1890.794503894832	26.139248852035
0	1542	1891.990016609268	26.286213744639
0	1547	1905.041919058457	34.885381094816
0	1549	1907.743818813264	25.228095849816
0	1551	1909.705436797696	26.856247310402
0	1562	1917.537760071748	34.676796192886
0	1564	1924.182599918894	38.550423935606
0	1566	1925.103994961228	21.859067953071
0	1568	1926.939953182299	16.854398999529
0	1570	1927.302856105016	15.44546673376
0	1572	1935.371656387986	19.037783046379
0	1578	1944.504176970436	0
0	1583	1948.982182310095	0
0	1588	1951.033647063177	0
0	1592	1965.042850258755	4.930689707031
0	1597	1967.578402927368	1.159894166276
0	1602	1972.499883844283	0.094664014159
0	1608	1983.967662436585	0
0	1615	1991.343277025471	7.00043521554
0	1623	2003.851365903058	13.897701196123
0	1631	2010.751363594596	15.053579347196
0	1642	2021.207838222371	24.15869001253
0	1644	2022.092381593829	16.036769039783
0	1649	2026.905527813896	16.567454144527
0	1651	2027.912157876884	14.882226337279
0	1668	2055.249888987106	38.252931747456
0	1673	2058.946937333969	37.953620357647
0	1675	2059.355183873673	32.654636332553
0	1677	2059.850434421686	30.781786582916
0	1682	2062.874605926878	22.110039061946
0	1684	2065.671702880044	16.759644266525
0	1689	2074.844905111902	25.222317098255
0	1691	2075.700094451346	24.25537110208
0	1693	2079.086393361445	23.415683885537
0	1695	2082.201567318203	21.707214298852
0	1700	2098.469366725172	29.914726720621
0	1702	2101.573521534746	18.53760881341
0	1708	2103.614434730911	0
0	1713	2129.182833332571	0
0	1720	2136.251696555338	4.556617837011
0	1722	2137.427788331954	2.319990208114
0	1728	2148.86531225413	0
0	1738	2152.73537398982	2.061790068497
0	1743	2155.064957892761	2.984836997317
0	1748	2160.915500816172	8.817745022956
0	1750	2162.002947669628	7.121968632569
0	1755	2163.949249139113	7.36832842046
0	1757	2164.228140916571	1.351031213891
0	1765	2166.670663186274	0.9827342679
0	1770	2175.158753687432	9.098381888667
0	1772	2180.798583581008	13.827110158322
0	1778	2189.731713551385	0
0	1782	2197.673473380747	0.710175539663
0	1788	2204.730569483738	0
0	1792	2208.696322125258	3.919396591732
0	1798	2222.168861932886	0
0	1803	2244.758654235904	0
0	1807	2248.825093275259	0.96767129498
0	1815	2259.363295656874	7.332430348053
0	1823	2264.118255759519	10.746794280167
0	1825	2264.514583148859	4.48498928272
0	1842	2274.256596157465	10.510962817033
0	1847	2276.726306292467	10.883037428772
0	1852	2280.920037564147	9.204688868242
0	1857	2281.844136905007	9.575361709638
0	1859	2291.797605813782	18.915010994955
0	1861	2294.347179403726	20.815296290667
0	1863	2294.475501302076	19.492040750993
0	1874	2305.472933244538	27.494231843136
0	1876	2306.441875172483	24.977568018474
0	1878	2309.650787413843	12.847484528255
0	1880	2310.043865302054	11.65282951226
0	1882	2314.574687350659	10.685767624734
0	1888	2320.339789198114	0
0	1895	2328.17669983697	3.648232494926
0	1903	2337.420576903892	11.780767577104
0	1908	2342.174232737899	13.728198050593
0	1910	2342.441382485928	11.098918816687
0	1912	2344.563083219847	5.503938627814
0	1917	2352.274672257995	5.607906709392
0	1922	2360.421520047239	6.267065372952
0	1928	2363.240914424465	0
0	1938	2371.634752997469	6.637960604869
0	1940	2373.233946515437	3.011583152763
0	1942	2374.92497410957	3.467857593261
0	1948	2382.480091245112	0
0	1953	2388.315994051858	0
0	1958	2394.191255121494	0
0	1962	2396.326873189484	1.853529785367
0	1970	2401.63268344735	5.29907037227
0	1981	2407.460230266395	10.991138303744
0	1990	2411.86006265448	9.301174292094
0	1992	2417.965545042592	15.046271285959
0	1994	2420.941815044226	16.431834936176
0	1996	2423.890015364556	12.363626685619
0	1998	2425.669124719959	14.135676248623
1	5	8.363209726909	2.663223428011
1	16	12.930672172959	3.316531583033
1	18	21.111496980609	10.530227844208
1	29	28.479737333454	17.516549996362
1	31	32.081567583289	10.705149428454
1	48	53.704843384997	29.187026505082
1	56	59.539643894099	33.091763103217
1	58	61.915030237832	22.887156095668
1	72	74.234984629363	34.806149296737
1	74	75.840618705383	32.612756278947
1	79	80.157567923343	35.886036843845
1	84	85.308658062634	38.824996634008
1	89	90.741809352282	34.659383778784
1	91	107.226723312551	48.558120167165
1	105	122.943508937784	59.142597094285
1	122	142.911784627929	76.175868714161
1	124	145.484289385236	76.292582849501
1	126	145.893704195387	75.063745510779
1	128	146.991829439092	69.71505155586
1	130	148.890998475444	64.175861473524
1	132	149.497563568193	59.933754195203
1	134	150.174107569802	41.383118611793
1	139	173.079014356942	63.633259568844
1	141	178.377765070935	66.607137277034
1	146	179.871275333715	60.535347816267
1	148	182.277565904863	58.288353144839
1	150	185.486163445765	57.840591428307
1	158	193.367053853001	56.41815928639
1	160	194.237115149702	57.127372475773
1	168	209.864864981261	67.414374169872
1	176	216.456806447872	46.244361648213
1	178	218.373946659601	39.412021786138
1	180	218.914174272667	29.613842713968
1	185	219.414921947165	26.762866768164
1	190	221.782112999489	23.568591954955
1	192	222.576907975167	16.515135966602
1	194	228.614555092463	17.986004880795
1	196	231.548777527221	19.467003650105
1	198	235.102261411577	16.151837704747
1	203	235.238459549915	15.29228529008
1	211	247.140787226564	11.941017634213
1	213	250.827810055916	12.643808774369
1	218	261.47691938703	14.376187318116
1	220	269.305802683818	18.281065118392
1	228	288.039085708014	9.890745238017
1	230	291.877434656876	13.028498179202
1	235	292.549138441763	0.072176878755
1	246	307.916550804576	9.514537241968
1	248	310.864517666492	9.427686921015
1	250	313.058399340196	5.185419436665
1	258	317.590599990253	0.209518889967
1	260	317.69414413847	0.124697984241
1	265	321.353935254328	1.324357955147
1	270	322.563997178545	0.831349135505
1	275	325.376245869389	1.564534352415
1	286	333.259875427093	5.297951660944
1	288	338.539351356017	8.992361868188
1	299	347.535091498064	15.342860351277
1	301	347.700477040145	8.41426153519
1	303	350.014370198448	10.01813236077
1	305	351.185688199619	7.724412053402
1	322	374.735686370532	19.669521495262
1	324	374.909092805049	17.60057450713
1	326	377.540380258124	20.182044043461
1	331	378.475117850225	20.967961950013
1	336	390.946981845666	22.597259615649
1	338	397.978750242372	19.896137007915
1	340	400.896330575323	21.882204121329
1	348	408.877502467075	5.8034334387
1	350	409.15227298241	5.67473878321
1	361	411.887734978762	2.216224545818
1	366	422.527772947581	12.550093953311
1	368	423.419889632034	13.136115540539
1	370	425.525876573159	10.279825720737
1	378	434.780912459151	1.813372578631
1	380	436.553223637359	2.746769845077
1	385	447.326798964933	1.830271915993
1	390	450.35247607368	0.743421493699
1	398	487.235486759195	6.353528374308
1	400	488.384157162427	4.32941524482
1	405	497.688177951454	0.884548884207
1	410	508.14355486179	2.676891950113
1	415	526.213699632978	4.723368368175
1	423	531.728264639744	1.624477013836
1	428	536.641720088452	5.173525330348
1	433	547.053151049337	14.608729241029
1	435	548.54536819619	6.709241197923
1	446	571.983864592152	9.211287276663
1	448	575.196178748064	12.4049308328
1	450	579.407340143806	13.962655737062
1	482	616.229232987808	26.677814746895
1	484	617.223684929088	21.492241151889
1	486	617.411083344044	19.449800712526
1	488	618.99569099074	17.548305022737
1	490	629.6949471415	26.197245779142
1	492	630.654110240639	25.415358222268
1	503	633.392716118501	27.29018965713
1	505	635.347762846293	26.478426997019
1	525	655.978844253954	43.50181033357
1	527	656.915305418835	43.207001638363
1	529	657.745822608416	25.412671122557
1	534	662.424101092095	29.225445752277
1	536	667.190617194008	33.848729284129
1	541	672.886839465777	33.301569897524
1	546	684.896170539045	44.901159336842
1	548	686.649602826886	43.056557445454
1	559	694.483172324663	45.158334269687
1	561	695.110799510148	43.111493256312
1	563	699.794929008797	46.403410500762
1	565	700.092055573499	40.256498678972
1	567	700.44624930918	31.848836193981
1	572	710.49664793509	29.964746819393
1	574	712.212251343662	25.562322608882
1	579	719.915775471701	30.342253958413
1	590	731.73778843734	39.672768302149
1	592	733.54558831728	26.908952021973
1	597	741.425827058593	26.050300312973
1	599	743.0460823	18.641383519614
1	601	743.44926761317	18.525725833938
1	609	750.421378421816	18.690065041123
1	614	758.67439691466	18.923869569966
1	619	772.126369982341	28.638323079439
1	621	773.552681818945	27.905699308925
1	632	780.335774849722	24.28873201216
1	634	782.00868526114	11.666039548144
1	636	801.747598158943	26.380303142268
1	641	808.900390986437	30.807268235677
1	646	813.988514113931	34.636422861957
1	648	819.824040494192	12.590872902383
1	650	822.753694890316	9.307157420541
1	655	828.002280774772	3.440053460475
1	660	834.655279857734	6.482593427895
1	665	839.525590239735	3.720852144196
1	673	863.547544457686	8.331957978693
1	675	863.729684843417	4.578720946487
1	683	870.474857121517	5.811859027353
1	685	871.436099106697	1.728153983242
1	690	883.731508695829	4.122098793613
1	698	894.49432199051	6.792629914594
1	700	894.568566328503	5.131927989591
1	708	906.433696393816	7.270379738105
1	710	916.413985309828	16.341901983119
1	715	922.427426592156	4.843235065439
1	723	927.098086079102	4.170582421361
1	725	928.236438131529	3.876690331673
1	733	939.546225985787	10.424645654183
1	738	952.876829863202	23.212548887446
1	740	953.399184069999	4.742100941248
1	748	961.747542086531	7.184522122037
1	753	964.7717845215	9.105848644815
1	761	975.597136961191	12.896982551093
1	766	977.095471049373	5.926507442763
1	768	990.000252955866	17.826915269242
1	773	994.915738076488	18.830961395014
1	784	1007.119657999551	14.60721125641
1	789	1029.339480243543	28.913929826453
1	791	1029.825880254362	26.778020000568
1	796	1034.16940854597	30.111831282013
1	798	1034.205700474069	20.347113457439
1	800	1040.906059356307	10.679118629077
1	805	1043.078457226978	0.393270934816
1	810	1047.500217494903	2.971852274441
1	815	1062.636694265193	0.212440513523
1	823	1072.928394668486	7.814235805953
1	825	1079.410214158994	6.827575235561
1	836	1083.874916433214	4.282286837155
1	838	1089.080167651025	9.369611847724
1	840	1094.856395053666	14.423889890986
1	851	1108.682194981512	8.561078299523
1	853	1115.320065987459	14.748269593578
1	858	1129.675582128547	25.127386854426
1	860	1135.215480075676	6.807708471103
1	865	1139.179088147166	2.062411466373
1	873	1153.975114045191	1.593264744918
1	875	1154.638309851768	2.112656496674
1	880	1159.210955164685	2.627183641626
1	888	1163.047005609955	1.99524648618
1	890	1167.165853847936	4.865585101867
1	910	1193.179702756976	17.111360657102
1	918	1201.007740109384	18.468384214694
1	923	1205.765847035715	19.153308112006
1	925	1206.51978780054	19.572263486934
1	927	1210.12980995554	22.106375569365
1	929	1210.174916043922	19.66359775808
1	931	1210.533523096871	14.987518232975
1	933	1211.220379308836	10.930472563642
1	935	1214.639416776565	9.602310801227
1	946	1241.415815941127	4.819179682624
1	954	1251.41697624589	14.264003413615
1	956	1254.795569929819	16.219887345304
1	964	1260.507549674421	14.14135778703
1	969	1266.981566435804	17.749597543907
1	974	1267.40734105316	10.691156616171
1	979	1267.948745305151	9.574469644331
1	981	1272.639391815616	11.764967077867
1	986	1279.445628702733	12.257257026914
1	988	1284.424077192999	16.656027980519
1	990	1284.512796577284	9.365477237701
1	998	1292.807959696089	2.580672975699
1	1000	1294.88243018491	3.894063592945
1	1005	1297.546092938529	0.719032137586
1	1010	1302.952157742266	3.079889050633
1	1021	1309.151284119409	3.981127650465
1	1032	1316.461036474464	10.630382353942
1	1034	1320.675749307301	14.115579378673
1	1036	1320.844250170272	5.389666082447
1	1038	1322.433628710129	6.534306979569
1	1043	1324.703104455721	8.526813314063
1	1054	1333.871634709383	9.537354925252
1	1059	1336.569970430947	7.701265063071
1	1064	1339.867154553441	7.781316070661
1	1069	1344.320982845765	11.119776754413
1	1071	1344.820807464419	10.832358859269
1	1076	1349.545091096827	12.287556028198
1	1087	1360.13642068567	15.926953778205
1	1089	1362.892449046422	15.963461144414
1	1091	1363.118269053935	11.454501222084
1	1096	1365.324698117998	11.684536975955
1	1101	1368.144457154567	13.27791615023
1	1103	1369.87305005817	6.427370041897
1	1114	1384.02106928954	16.436652917572
1	1116	1385.938979036149	15.879520379264
1	1118	1388.438409280779	15.440588792199
1	1123	1392.910514749373	10.666984347286
1	1131	1403.048272864818	14.492448390542
1	1136	1403.859965845991	1.557470073451
1	1138	1404.574079219385	1.598361601115
1	1146	1412.14209122065	9.00596174622
1	1157	1419.623038081179	12.616727920658
1	1159	1420.171967906015	12.375033125737
1	1164	1423.414100815469	10.934123575196
1	1166	1425.12420766655	12.237932590492
1	1168	1425.166324618082	9.528280375534
1	1170	1425.347087214457	4.51647687684
1	1178	1441.862543167424	7.581445287809
1	1186	1463.995368025454	23.346223754484
1	1191	1465.298951897398	17.01840884525
1	1196	1470.192597510838	19.428683069251
1	1201	1474.249644574812	10.221947787494
1	1203	1475.549623220726	5.674271047817
1	1205	1481.197682416776	10.069471581384
1	1213	1485.496655712614	1.533762835166
1	1215	1490.687529718745	6.266284159376
1	1226	1515.575499907197	21.187668012209
1	1228	1523.441892184875	25.496842155254
1	1236	1528.047128362542	27.456422622841
1	1244	1532.251057557715	7.108934055206
1	1246	1535.719203198214	9.652211260763
1	1266	1562.303503441005	30.881865127782
1	1268	1568.622179266366	36.534157927965
1	1273	1581.296908187798	44.861177894946
1	1284	1591.562262113229	40.244925682996
1	1286	1597.784517756411	42.802734288243
1	1297	1609.611194375207	50.227014130387
1	1299	1611.347328786488	51.326009685555
1	1304	1616.008174868513	53.780189686244
1	1306	1622.194706978548	48.279429065456
1	1320	1635.717094477732	51.881916510313
1	1322	1635.992975725991	51.853275912893
1	1330	1640.59179080497	52.624931609354
1	1332	1641.170411703315	43.293210163808
1	1334	1644.469154099373	42.42519959646
1	1342	1658.881765888838	55.237887939036
1	1344	1664.678814755333	51.868591759002
1	1346	1666.729096855149	42.145776326538
1	1348	1668.334676969025	42.12958073913
1	1350	1669.026398172042	42.085483213768
1	1364	1698.62445772171	63.00172091905
1	1366	1699.574112714875	62.485004790429
1	1368	1700.918227572853	61.480646611286
1	1370	1704.397706202867	54.441310393397
1	1378	1707.827034027686	56.306454068859
1	1380	1709.01177608718	38.464328852748
1	1394	1733.25042164343	52.136936217212
1	1399	1736.329578467467	46.375492583364
1	1401	1736.418478452481	46.211343989165
1	1412	1749.586026625268	44.825369816832
1	1417	1752.797637315897	46.392184135596
1	1422	1760.454765611418	51.286169105774
1	1424	1760.544146311426	49.853025458753
1	1432	1764.552280776116	49.889607714564
1	1434	1769.067817346831	43.604804926659
1	1442	1777.005312793543	42.942854748194
1	1444	1779.812296598874	42.341437811611
1	1458	1790.973669184254	48.433839248189
1	1466	1794.136579022131	48.945666042721
1	1471	1799.354608635631	49.501746237459
1	1482	1819.916143028409	65.929033241051
1	1484	1820.233626390703	58.53689956909
1	1489	1830.01787554044	66.008751018988
1	1491	1841.805900985005	69.131252792035
1	1496	1847.031925265417	70.729777241875
1	1498	1848.661196908622	68.659417882129
1	1500	1850.99770627899	65.005735096462
1	1502	1861.943649959779	73.546585171401
1	1504	1863.750565359316	73.812258707011
1	1506	1864.455155522237	71.736790957604
1	1514	1868.034078758379	74.777764252701
1	1519	1872.571608000511	75.009820796637
1	1521	1872.799041814001	62.214085560927
1	1523	1879.660246994505	68.524185816742
1	1537	1889.066089208779	75.00378934465
1	1539	1889.358456735709	61.027042324729
1	1541	1890.794503894832	45.500636500669
1	1543	1891.990016609268	27.334761566471
1	1548	1905.041919058457	39.338116193828
1	1550	1907.743818813264	37.587280849623
1	1552	1909.705436797696	27.189713834248
1	1563	1917.537760071748	34.688570584454
1	1565	1924.182599918894	41.321636040032
1	1567	1925.103994961228	39.47181897794
1	1569	1926.939953182299	23.695026174142
1	1571	1927.302856105016	17.217301922246
1	1573	1935.371656387986	23.51426701673
1	1575	1941.032791983031	24.698918641424
1	1580	1947.974272164362	3.470095193926
1	1585	1950.344551897548	1.362369587453
1	1593	1965.042850258755	14.009203195578
1	1598	1967.578402927368	7.466242375644
1	1603	1972.499883844283	6.081375083191
1	1605	1972.776897447257	0.371677617133
1	1616	1991.343277025471	7.375614588886
1	1624	2003.851365903058	19.508524093127
1	1632	2010.751363594596	20.797698887661
1	1643	2021.207838222371	25.510053974971
1	1645	2022.092381593829	25.043233383988
1	1650	2026.905527813896	20.84991525985
1	1652	2027.912157876884	17.574084207515
1	1669	2055.249888987106	42.219957447501
1	1674	2058.946937333969	41.949980094319
1	1676	2059.355183873673	38.361866897351
1	1678	2059.850434421686	33.149886880566
1	1683	2062.874605926878	33.805958088108
1	1685	2065.671702880044	24.907136015112
1	1690	2074.844905111902	25.932846498383
1	1692	2075.700094451346	26.077506437699
1	1694	2079.086393361445	27.641670012179
1	1696	2082.201567318203	26.530857842295
1	1701	2098.469366725172	37.975013705821
1	1703	2101.573521534746	33.018881530195
1	1705	2101.605111998845	18.569199277509
1	1710	2125.809063823226	22.194629092315
1	1721	2136.251696555338	7.068863222767
1	1723	2137.427788331954	5.732709613627
1	1725	2144.955177108441	9.847378984601
1	1739	2152.73537398982	3.87006173569
1	1744	2155.064957892761	4.391373971438
1	1749	2160.915500816172	8.835379920728
1	1751	2162.002947669628	9.905191876412
1	1756	2163.949249139113	9.068270102054
1	1758	2164.228140916571	7.647220197918
1	1766	2166.670663186274	3.793553483594
1	1771	2175.158753687432	9.470824769058
1	1773	2180.798583581008	14.738211782243
1	1775	2182.500172775339	15.528699352653
1	1783	2197.673473380747	7.941759829362
1	1785	2198.778649749454	1.81535190837
1	1793	2208.696322125258	3.96575264152
1	1795	2209.321758007559	4.544832474033
1	1800	2226.349327776959	4.180465844073
1	1808	2248.825093275259	4.066439039355
1	1816	2259.363295656874	11.505873676595
1	1824	2264.118255759519	12.087390450698
1	1826	2264.514583148859	11.143121669507
1	1843	2274.256596157465	14.227002291326
1	1848	2276.726306292467	12.980672952035
1	1853	2280.920037564147	15.076768700452
1	1858	2281.844136905007	10.128788209102
1	1860	2291.797605813782	19.528830618413
1	1862	2294.347179403726	21.464584584899
1	1864	2294.475501302076	20.943618189017
1	1875	2305.472933244538	30.489472693455
1	1877	2306.441875172483	28.463173771081
1	1879	2309.650787413843	28.186480259834
1	1881	2310.043865302054	13.240562416466
1	1883	2314.574687350659	16.183651560865
1	1885	2318.765457918524	14.876538192599
1	1896	2328.17669983697	7.836910638856
1	1904	2337.420576903892	12.892109561848
1	1909	2342.174232737899	16.534423411111
1	1911	2342.441382485928	13.995347798622
1	1913	2344.563083219847	13.220619550606
1	1918	2352.274672257995	13.215527665962
1	1923	2360.421520047239	13.754754498636
1	1925	2361.713709095482	7.559254421195
1	1939	2371.634752997469	8.393838573004
1	1941	2373.233946515437	8.237154122837
1	1943	2374.92497410957	4.702610746896
1	1945	2382.013099758105	10.555983241796
1	1950	2387.61732270554	5.137231460428
1	1955	2391.882356448666	3.566362396808
1	1963	2396.326873189484	2.13561806799
1	1971	2401.63268344735	7.159340043233
1	1982	2407.460230266395	11.126617191315
1	1991	2411.86006265448	15.390970691829
1	1993	2417.965545042592	15.406656680206
1	1995	2420.941815044226	18.022541287593
1	1997	2423.890015364556	19.380035256506
1	1999	2425.669124719959	14.142736041022
1	2001	2437.187176222634	25.653727751298
