version 2
run Testbench_1-1525-20170516-19:23:52-62056
attr configname Testbench_1
attr datetime 20170516-19:23:52
attr experiment Testbench_1
attr inifile omnetpp.ini
attr iterationvars $0=400
attr iterationvars2 "$0=400, $repetition=25"
attr measurement $0=400
attr network Toll_road
attr processid 62056
attr repetition 25
attr replication #25
attr resultdir results
attr runnumber 1525
attr seedset 1525
param **.numBooths 3
param **.queue[*].serviceTime exponential(5.11s)
param **.source.interArrivalTime exponential(5.854s)
param **.source.numJobs 1000

vector 0  Toll_road.queue[0]  jobsProcessed:vector  ETV
attr interpolationmode  none
attr source  queueingTime
attr title  "jobs processed, vector"
vector 1  Toll_road.sink  lifeTime:vector  ETV
attr interpolationmode  none
attr title  "lifetime of arrived jobs, vector"
attr unit  s
0	3	8.783519465081	0
0	10	19.92662532994	4.32878341542
0	12	22.803645507878	3.687773025134
0	18	31.260199943544	0
0	23	35.334454083657	0
0	28	44.140192915805	0
0	35	50.144494511012	5.330704958179
0	37	53.108976023221	5.773161341925
0	43	60.205126383336	0
0	50	63.602905842713	1.934037255329
0	55	66.231155559621	3.264263586056
0	57	67.33779038354	2.409941109647
0	62	67.963127013891	0.354846865834
0	68	79.115244636509	0
0	73	91.97862226453	0
0	77	102.725837099079	1.179073649479
0	82	107.817881314538	1.445826311443
0	88	113.629017785032	0
0	101	128.315938136095	12.769976530153
0	103	131.825517883145	16.067839069433
0	111	135.412201688684	16.53507078446
0	113	135.624676119978	11.165298050386
0	127	145.286924683682	10.556460931163
0	129	145.290906227788	10.208505474354
0	140	157.378497037423	21.560475470057
0	142	160.349361383298	22.07143242339
0	144	164.704916670834	23.072634792452
0	149	170.089312787703	26.872706371104
0	154	174.973654284768	24.233653018238
0	159	179.002936263014	24.286776956229
0	161	183.198100657187	26.214476290237
0	166	192.134640124279	25.185858309472
0	171	200.253065476441	26.737466624973
0	179	203.231101410832	24.316123577814
0	181	212.818720667294	23.880406697885
0	183	213.810481020594	19.853753646944
0	191	223.838566658329	22.60977152485
0	193	226.36974942145	24.435429684028
0	195	226.657745267096	12.359163044155
0	206	237.281916715052	16.105732640916
0	211	244.962562682045	17.372516582656
0	216	247.004222157993	15.917317252826
0	227	258.311360277983	21.041078632018
0	232	261.098586724542	17.525770570117
0	243	271.01680742512	24.405876470879
0	245	273.00257018981	25.579013105519
0	253	281.082590729515	31.656579093613
0	255	282.201520737426	26.060533749774
0	257	284.467390232288	25.200965308699
0	259	285.86195992042	21.854406840207
0	264	290.932824127605	25.894869018883
0	269	295.597694626667	24.898971292046
0	271	300.72772428859	25.60721976131
0	273	301.324635356503	23.289102523028
0	278	302.529361829661	12.512458720275
0	286	310.512122990238	15.926960881128
0	291	320.940677117427	19.521877430869
0	293	322.059198568092	16.333150502358
0	295	325.376827076013	17.369401486625
0	306	331.464139221029	17.47615014452
0	323	337.597609688755	11.711050022048
0	334	354.25232265471	27.017261483153
0	336	360.331530712405	31.987893764568
0	338	363.977294032467	31.001454726322
0	340	365.437210716148	32.401196403088
0	342	366.132708207529	32.630977893567
0	350	369.482758928228	35.23523166949
0	361	378.582887062704	42.382520063086
0	363	384.143298684106	42.438096767651
0	368	387.280443174253	41.892252238363
0	370	388.281051213371	41.495537964351
0	372	389.146959159355	20.291364677015
0	380	401.326268431129	32.406952465588
0	382	407.842892714103	34.197851443047
0	393	411.163631514045	35.101598843671
0	398	415.665711186163	39.325942938659
0	400	417.186163792083	30.146061100263
0	402	418.326661497473	17.267144674122
0	410	422.784237634224	21.665202416335
0	412	424.901994215316	16.996280057758
0	414	428.684881478456	20.009728793951
0	419	437.95913312585	29.179418171003
0	430	447.302761915772	35.887773181537
0	432	449.206674116016	28.099103300572
0	437	454.889403307355	33.740187972744
0	442	466.951502553106	36.628931147445
0	444	471.725828163693	33.610490927295
0	452	477.517252862657	35.459849227732
0	454	477.724283472729	31.760616016255
0	456	477.908151166332	28.248495641844
0	458	478.530643466105	18.95399141238
0	466	484.414317649348	10.705680467931
0	471	491.294892419824	17.553097494918
0	479	498.188527772585	17.872543557907
0	481	503.583984972548	22.113251493483
0	483	512.529813008045	27.362951661544
0	494	529.190296851683	37.575470878833
0	496	529.313665382118	37.587405822501
0	501	531.89076379327	16.864067849809
0	506	535.157375220347	18.310823693847
0	508	536.247290572378	7.342806170449
0	510	537.212859225787	7.02992141137
0	521	543.082282879021	10.217997486231
0	523	543.671800620813	4.383500673794
0	534	560.06827573248	19.5617977508
0	539	567.164191157229	26.632485360052
0	541	569.707361965738	24.920756432168
0	543	572.114079086977	26.932915585979
0	545	573.566833560215	16.311219036037
0	553	577.082913928972	11.302161097549
0	558	578.968208543804	4.664558349913
0	560	583.386572272977	8.231866762607
0	574	596.69467925653	19.161460281638
0	588	607.404689931824	22.865431647165
0	590	608.851643812784	18.461154833972
0	592	610.434560432619	19.062855912861
0	597	612.236056159894	20.842628343676
0	602	613.145193676327	11.328718510496
0	604	616.186207417359	13.728440552522
0	606	618.183646028665	13.925551505867
0	608	622.403155199356	15.45725241455
0	613	625.504787722681	13.485950669429
0	618	632.455955619925	19.509412565374
0	620	634.709247104519	11.44317757322
0	643	659.808271286354	32.007569619986
0	645	664.157549486894	26.374237819962
0	650	669.635274651757	30.308557226976
0	664	681.446748400554	39.911405373903
0	669	685.66312232722	39.048887929059
0	671	688.747960128033	32.178020145489
0	673	691.7839175794	33.891894402854
0	678	696.608469422329	38.354683530318
0	692	706.598284950615	40.158462520116
0	697	712.219418926953	40.742731349509
0	699	728.937018889368	55.148771007536
0	701	734.18641234664	58.73633871372
0	703	734.599060226589	56.382051238275
0	705	735.011035343277	53.065032155708
0	707	740.543163978608	46.65819974518
0	724	761.406086166015	62.31210927747
0	729	764.430332819775	65.239263104912
0	746	776.883613357899	76.858026849086
0	754	779.935372169156	73.676531628324
0	756	780.11737497943	68.258904796578
0	761	781.740854381473	38.6483314903
0	763	786.357069438927	38.390159619462
0	768	789.362766562818	36.477441818232
0	770	790.904203106616	34.519495714938
0	775	795.037545189536	38.381889888394
0	777	808.770784121833	45.503330619765
0	779	809.5421781518	41.08503408644
0	781	810.894193624856	40.918288389454
0	783	813.844168796488	41.398183466305
0	791	819.873894947711	44.046009954398
0	793	820.641281810812	43.965403197651
0	801	827.096018111395	49.567046567382
0	806	828.196316615059	49.011338300239
0	811	835.931346978871	55.711628352773
0	813	848.720891244293	60.767653589561
0	815	851.599468575086	56.771770321587
0	820	857.188945810188	40.648694208772
0	825	861.913306130133	44.469470059253
0	842	873.067081488639	52.34724830941
0	850	881.72372267147	60.440941294567
0	852	882.228455478406	54.293066779827
0	860	889.423801689556	53.531317088017
0	862	895.346824863255	40.639199393834
0	867	896.636106553507	38.10490004097
0	869	896.896137193202	32.121484073082
0	871	897.849362423021	32.71977515903
0	876	901.706888560363	35.941379545117
0	884	911.12260575342	43.02667816945
0	889	915.519417507147	46.716492224614
0	891	919.52430989769	43.779056869834
0	893	919.595069534767	39.432316224181
0	895	921.945779947677	37.30788113304
0	897	928.413399158233	41.319654867617
0	902	937.138575874824	40.863550905955
0	916	957.281334786252	57.559325084496
0	918	958.259902722047	56.162670045919
0	920	960.877346871281	52.147749064878
0	925	964.67036994264	50.402531443972
0	927	968.419171385194	39.718765365075
0	929	968.694455594102	26.708860537616
0	931	971.402931562014	27.928040305718
0	933	974.732574662568	26.166330955864
0	938	976.147746459969	27.259180576364
0	940	982.53065373333	19.36746928655
0	951	993.43384651994	17.518544013501
0	953	993.469141817867	10.015383231836
0	955	999.326349543381	15.24772170418
0	957	1000.060957433324	11.158634299501
0	962	1006.355841442639	5.882992375905
0	968	1007.328843653541	0
0	972	1009.220561882952	0.803678789025
0	983	1016.898662771426	2.843339685102
0	988	1027.012601380907	12.371848591547
0	990	1035.524570258506	19.933888154655
0	992	1037.223467281523	10.88594036397
0	998	1047.71060810124	0
0	1003	1066.894522188101	0
0	1008	1077.0032142543	0
0	1013	1110.413740766404	0
0	1018	1118.025049977341	0
0	1022	1120.490675852272	0.013992353056
0	1030	1123.568764111178	1.999838443647
0	1038	1132.540106090824	10.448045620644
0	1043	1133.503570585653	9.571338921667
0	1048	1136.850648068983	7.878622650016
0	1050	1137.369539653921	3.96506022893
0	1055	1149.945148108711	13.964343485441
0	1057	1152.157308004872	6.313375467884
0	1063	1156.791980167334	0
0	1070	1166.006737818121	7.713635343728
0	1072	1169.393012979959	6.761533588779
0	1078	1178.421576931696	0
0	1083	1192.717705332506	0
0	1088	1216.292383343552	0
0	1101	1233.64934743725	14.455671491642
0	1106	1236.854876620722	15.209486865641
0	1108	1236.92676286226	8.872520128064
0	1110	1240.648201020308	8.592408153252
0	1112	1241.354486942027	5.452325220865
0	1120	1248.087081501252	5.854249178326
0	1125	1253.828800141291	11.551526363579
0	1127	1254.59565867948	2.117653436874
0	1133	1256.00953772284	0
0	1138	1258.558407612955	0
0	1143	1269.210318769872	0
0	1148	1305.324077458102	0
0	1152	1310.159524729897	2.399020004015
0	1158	1333.33725622195	0
0	1162	1337.10459951439	2.258505951369
0	1179	1352.914059553684	14.38793849908
0	1184	1362.880945095204	23.899954014173
0	1192	1364.965727543206	22.180316030129
0	1194	1365.530220141171	22.707245503462
0	1196	1369.186746940858	22.658232518401
0	1198	1375.65969299406	16.15402878759
0	1203	1387.501029829658	24.023895419719
0	1214	1392.64560538577	29.00358946682
0	1216	1399.006879268362	22.0747694397
0	1230	1403.369045580988	15.586010432326
0	1232	1409.798926534526	19.747825108681
0	1240	1422.738415305862	30.316962394244
0	1248	1436.07039008013	35.402847209742
0	1250	1438.101675952808	37.239272194372
0	1258	1455.21393182065	54.290398631185
0	1263	1458.92014502072	57.67897482768
0	1265	1461.209090460886	47.58923752528
0	1276	1472.290314207581	56.288905107813
0	1281	1485.008235115187	56.970074852399
0	1286	1486.863415083504	54.118832470385
0	1288	1488.56875117522	38.826772328642
0	1293	1494.871405006526	42.10774913239
0	1298	1503.25963278689	47.959198346635
0	1300	1503.763927118434	38.893296961124
0	1302	1505.228598242929	35.540694734579
0	1307	1514.91429816385	44.439882823413
0	1312	1522.574860419656	40.692204731058
0	1314	1524.593947911933	39.136933916369
0	1319	1528.456222297579	33.624372819074
0	1321	1536.530717999946	37.614210831379
0	1326	1539.313943964982	25.453612832395
0	1334	1548.382147736371	33.063144686237
0	1336	1550.243709437027	22.322824992925
0	1338	1551.083101395586	13.267940098356
0	1340	1551.841632149197	6.683237672262
0	1342	1556.722143764223	11.521582777192
0	1350	1565.315549704964	8.390638974129
0	1358	1585.777433357759	28.205483572826
0	1360	1592.717760894441	21.27851401428
0	1362	1597.319635822617	14.450153758373
0	1367	1599.920017668399	0.835126457934
0	1372	1607.867425632855	4.896718248266
0	1378	1621.067140540024	0
0	1382	1626.571950251379	5.216855580066
0	1388	1630.571904986998	0
0	1395	1632.931274148619	1.883576128784
0	1409	1658.288340907998	25.425541738612
0	1411	1658.87662894407	25.25422775294
0	1416	1664.889661537111	25.847064346539
0	1418	1671.809265604744	22.978756556591
0	1420	1678.043917994309	21.641735604373
0	1422	1679.238016901233	17.75966175489
0	1428	1680.079986087913	0
0	1433	1697.636258638371	0
0	1438	1703.175027237271	0
0	1443	1712.320796302997	0
0	1448	1718.752836372941	0
0	1453	1725.169028596781	0
0	1469	1767.082669030622	36.900575581076
0	1474	1774.918069143013	41.702240380613
0	1479	1775.764048275994	42.328085955496
0	1484	1778.716635768578	22.302257054063
0	1486	1779.266069556662	19.419974565522
0	1488	1783.06413646204	15.840905584644
0	1490	1783.504878344305	7.797760250096
0	1501	1790.522828684296	14.31868848726
0	1503	1800.776192404886	14.530195729559
0	1520	1810.969789688149	22.290910020252
0	1525	1825.365874024238	35.255523307767
0	1530	1839.446525266403	38.383260800329
0	1532	1839.900449504511	38.47717964076
0	1534	1840.757961307366	37.182834867598
0	1536	1841.896289085837	32.396917386503
0	1544	1844.668399367933	33.728818487881
0	1546	1846.178216125486	28.357858139724
0	1548	1849.25723487664	10.095645599892
0	1550	1851.289928565584	7.960051884421
0	1552	1851.478913830356	7.674782992467
0	1560	1853.464748244308	0.848631417566
0	1562	1855.07096930093	2.404622720292
0	1568	1856.854430462969	0
0	1575	1861.496950372055	1.48824318861
0	1580	1869.70455619837	8.746602328199
0	1585	1873.853878995726	10.330140367501
0	1587	1874.125432728373	2.969410494483
0	1592	1875.951323911198	0.547652160716
0	1598	1883.810873843405	0
0	1605	1892.831128224978	3.673667284695
0	1607	1899.47086703776	9.702987712375
0	1618	1916.331108906112	15.951893542364
0	1620	1917.324684987103	11.851189121312
0	1622	1919.321320596191	7.633282679384
0	1628	1929.492760077109	0
0	1632	1939.221355652369	7.442366673985
0	1638	1944.935656696872	0
0	1648	1957.435459649574	11.973825638837
0	1650	1958.480621927796	8.496374065924
0	1655	1965.593077768834	14.692396262056
0	1657	1967.35863470177	2.314687942313
0	1662	1968.031087296505	0.106397105708
0	1685	1994.036636808532	21.875531682392
0	1690	2002.434498058019	28.7140595205
0	1692	2002.623861505264	21.085487849023
0	1694	2003.014058353516	21.004696698434
0	1699	2007.166392371298	22.677883144068
0	1701	2010.672434103907	24.306541522986
0	1703	2013.896537692229	26.77352802986
0	1708	2018.538721630473	23.284476557085
0	1710	2020.492585023962	16.993708038478
0	1712	2028.343435609947	10.419209878653
0	1718	2036.341203529633	0
0	1723	2045.040237101477	0
0	1728	2048.127006588697	0
0	1733	2064.539990259444	0
0	1740	2073.834099485278	8.688679698759
0	1742	2077.070823530132	3.306516242266
0	1747	2088.228245942107	6.652642142825
0	1752	2096.000784083149	2.725992943814
0	1758	2117.319569865282	0
0	1762	2119.557383928642	0.997574879695
0	1767	2126.361038168091	6.323000883048
0	1775	2140.911071731403	7.673949194764
0	1780	2144.751766286352	6.380684549277
0	1782	2145.515461688773	1.951874496581
0	1790	2153.056350110308	7.440089384056
0	1798	2160.872782392357	13.632102599498
0	1803	2163.50685148451	6.70818093131
0	1808	2165.227786143158	4.42740465026
0	1813	2167.179762215349	5.385945331079
0	1818	2176.290937302151	11.844173368749
0	1820	2182.317579778528	17.045450108622
0	1831	2188.399456509254	14.467726090835
0	1836	2189.860033355918	7.034162162375
0	1838	2202.833318656201	18.182956089411
0	1840	2203.752403775534	18.376172167416
0	1848	2211.570388692642	22.675145367979
0	1859	2218.126039677411	10.891966530305
0	1861	2218.755819226818	7.912494502502
0	1863	2218.987417558058	7.163150780718
0	1868	2232.112120989847	18.639422464015
0	1870	2232.477031281727	14.972496539182
0	1881	2234.383635323523	10.722242498495
0	1883	2236.230337653594	2.985474845936
0	1885	2237.188232696425	3.891130598312
0	1887	2239.749442074777	6.103645460017
0	1893	2243.81941493043	0
0	1898	2251.929655955298	0
0	1903	2254.600317494733	0
0	1907	2257.941760214566	1.466581858949
0	1913	2268.261495537337	0
0	1920	2279.307507900155	10.877607215247
0	1922	2279.431543006652	3.707002060154
0	1927	2292.42603977721	5.266158873245
0	1933	2297.035052977896	0
0	1938	2307.703557512502	0
0	1943	2316.694116899442	0
0	1947	2321.279686818069	3.468765807819
0	1952	2344.16001075957	5.530609139319
0	1958	2364.103276774571	0
0	1962	2367.818555031489	0.444972871874
0	1968	2381.180498678342	0
0	1975	2386.141213133163	3.832119932097
0	1980	2391.659474038084	8.977077124312
0	1988	2393.979253725335	7.72067629676
0	1990	2398.969020403735	6.108614668804
0	1992	2399.427843020444	6.387448101771
0	1998	2421.059308316654	13.780454000048
1	11	19.92662532994	11.143105864859
1	13	22.803645507878	7.205803593358
1	15	27.666951264175	8.551078781431
1	20	33.215097995425	1.954898051881
1	25	35.62833217744	0.293878093783
1	36	50.144494511012	6.004301595207
1	38	53.108976023221	8.295186470388
1	40	53.544152614344	6.208337933048
1	51	63.602905842713	3.397779459377
1	56	66.231155559621	4.562286972237
1	58	67.33779038354	4.370898409975
1	63	67.963127013891	3.035277739998
1	65	71.617832780312	4.009552632255
1	70	86.746022735605	7.630778099096
1	78	102.725837099079	10.747214834549
1	83	107.817881314538	6.271117864938
1	85	110.835854642491	4.463799639396
1	102	128.315938136095	14.686920351063
1	104	131.825517883145	16.279556277203
1	112	135.412201688684	19.654522874972
1	114	135.624676119978	16.747545215754
1	128	145.286924683682	20.82754661409
1	130	145.290906227788	10.560442475269
1	141	157.378497037423	22.296096283989
1	143	160.349361383298	24.531339815932
1	145	164.704916670834	26.426987710926
1	150	170.089312787703	28.457030909321
1	155	174.973654284768	31.757047868169
1	160	179.002936263014	28.262934996484
1	162	183.198100657187	28.481941350402
1	167	192.134640124279	35.151015757329
1	172	200.253065476441	33.304283661634
1	180	203.231101410832	29.715502559364
1	182	212.818720667294	33.903742834276
1	184	213.810481020594	24.872167051185
1	192	223.838566658329	29.881839284679
1	194	226.36974942145	25.140954287971
1	196	226.657745267096	24.723425529674
1	207	237.281916715052	22.983334492111
1	212	244.962562682045	23.786378607909
1	217	247.004222157993	19.414176058604
1	228	258.311360277983	27.224455372816
1	233	261.098586724542	23.828305078577
1	244	271.01680742512	27.443991270695
1	246	273.00257018981	26.391639235569
1	254	281.082590729515	33.659033645224
1	256	282.201520737426	32.775509101524
1	258	284.467390232288	28.326403244636
1	260	285.86195992042	26.595534996831
1	265	290.932824127605	26.925271047392
1	270	295.597694626667	30.559739517945
1	272	300.72772428859	30.029000953969
1	274	301.324635356503	26.204130829223
1	279	302.529361829661	24.493828996186
1	287	310.512122990238	20.495219880852
1	292	320.940677117427	26.355515008317
1	294	322.059198568092	20.640398881534
1	296	325.376827076013	19.650779010279
1	307	331.464139221029	23.456713631641
1	324	337.597609688755	23.609620612246
1	335	354.25232265471	28.365762988003
1	337	360.331530712405	33.096469540848
1	339	363.977294032467	35.63365708463
1	341	365.437210716148	32.461371410003
1	343	366.132708207529	33.096693894469
1	351	369.482758928228	35.981028614266
1	362	378.582887062704	44.335359803966
1	364	384.143298684106	47.942931684488
1	369	387.280443174253	45.575241257798
1	371	388.281051213371	42.892860277481
1	373	389.146959159355	42.361445910335
1	381	401.326268431129	32.470673948789
1	383	407.842892714103	38.923576748562
1	394	411.163631514045	37.518590242989
1	399	415.665711186163	39.603678515789
1	401	417.186163792083	40.846395544579
1	403	418.326661497473	31.286558805653
1	411	422.784237634224	21.724720810873
1	413	424.901994215316	23.782958997427
1	415	428.684881478456	20.779167320898
1	420	437.95913312585	29.283980441345
1	431	447.302761915772	38.523046960925
1	433	449.206674116016	37.791685381781
1	438	454.889403307355	33.781832491911
1	443	466.951502553106	45.802287218495
1	445	471.725828163693	41.403256758032
1	453	477.517252862657	39.401915626259
1	455	477.724283472729	35.666879837804
1	457	477.908151166332	31.944483709858
1	459	478.530643466105	28.870987941617
1	467	484.414317649348	24.837665595623
1	472	491.294892419824	17.586255238407
1	480	498.188527772585	24.446732847679
1	482	503.583984972548	23.26800075787
1	484	512.529813008045	31.05907952898
1	495	529.190296851683	44.023435505182
1	497	529.313665382118	37.698839409268
1	502	531.89076379327	40.164504233653
1	507	535.157375220347	20.130679276886
1	509	536.247290572378	19.400739045878
1	511	537.212859225787	8.308374823858
1	522	543.082282879021	12.899345064604
1	524	543.671800620813	10.807515228023
1	535	560.06827573248	20.779975785461
1	540	567.164191157229	26.657713175549
1	542	569.707361965738	29.175656168561
1	544	572.114079086977	27.327473553407
1	546	573.566833560215	28.385670059217
1	554	577.082913928972	19.827299404794
1	559	578.968208543804	13.187455712381
1	561	583.386572272977	9.082922079086
1	575	596.69467925653	21.53997374616
1	589	607.404689931824	29.871470956932
1	591	608.851643812784	24.312385528125
1	593	610.434560432619	20.044071453807
1	598	612.236056159894	20.864351640136
1	603	613.145193676327	21.751765860109
1	605	616.186207417359	14.369732251528
1	607	618.183646028665	15.725879163828
1	609	622.403155199356	18.145060676558
1	614	625.504787722681	18.558884937875
1	619	632.455955619925	20.437118566673
1	621	634.709247104519	21.762704049968
1	644	659.808271286354	36.542201755055
1	646	664.157549486894	36.356847820526
1	651	669.635274651757	31.851962984825
1	665	681.446748400554	42.120030975773
1	670	685.66312232722	44.127779300569
1	672	688.747960128033	42.133725729872
1	674	691.7839175794	35.213977596856
1	679	696.608469422329	38.716446245783
1	693	706.598284950615	48.344499058604
1	698	712.219418926953	45.779596496454
1	700	728.937018889368	57.460331311924
1	702	734.18641234664	60.398164464808
1	704	734.599060226589	59.148986593669
1	706	735.011035343277	56.794026354963
1	708	740.543163978608	58.597160791039
1	725	761.406086166015	67.521121932587
1	730	764.430332819775	65.33635593123
1	747	776.883613357899	77.692543643036
1	755	779.935372169156	79.909785660343
1	757	780.11737497943	73.858534438598
1	762	781.740854381473	69.882384198621
1	764	786.357069438927	43.264546547754
1	769	789.362766562818	41.395856743353
1	771	790.904203106616	38.01887836203
1	776	795.037545189536	38.652837797858
1	778	808.770784121833	52.115128820691
1	780	809.5421781518	46.274724649732
1	782	810.894193624856	42.437049559496
1	784	813.844168796488	43.868263561086
1	792	819.873894947711	47.427909617528
1	794	820.641281810812	44.813396817499
1	802	827.096018111395	50.420139498234
1	807	828.196316615059	50.667345071046
1	812	835.931346978871	56.746368664051
1	814	848.720891244293	68.501172618195
1	816	851.599468575086	63.646230920354
1	821	857.188945810188	62.361247556689
1	826	861.913306130133	45.373054528717
1	843	873.067081488639	55.623245417759
1	851	881.72372267147	61.003889492241
1	853	882.228455478406	60.945674101503
1	861	889.423801689556	61.488412990977
1	863	895.346824863255	59.454340261716
1	868	896.636106553507	41.928481084086
1	870	896.896137193202	38.364930680665
1	872	897.849362423021	33.074709302901
1	877	901.706888560363	36.577301296372
1	885	911.12260575342	45.357096738174
1	890	915.519417507147	47.423489923177
1	892	919.52430989769	50.721384615157
1	894	919.595069534767	43.849816506911
1	896	921.945779947677	41.783026637091
1	898	928.413399158233	43.775500343596
1	903	937.138575874824	50.044831584208
1	917	957.281334786252	61.006309817383
1	919	958.259902722047	58.537893020291
1	921	960.877346871281	58.780114195153
1	926	964.67036994264	55.940772136237
1	928	968.419171385194	54.151332886526
1	930	968.694455594102	39.994049573983
1	932	971.402931562014	29.417336505528
1	934	974.732574662568	31.257683406272
1	939	976.147746459969	27.581502753265
1	941	982.53065373333	33.642087849725
1	952	993.43384651994	30.27066207316
1	954	993.469141817867	17.553839311428
1	956	999.326349543381	15.87259095735
1	958	1000.060957433324	15.982329594123
1	963	1006.355841442639	17.453518308816
1	965	1006.986363591513	6.513514524779
1	973	1009.220561882952	1.891718229411
1	984	1016.898662771426	8.481779677499
1	989	1027.012601380907	12.957278294583
1	991	1035.524570258506	20.883817469146
1	993	1037.223467281523	21.632785177672
1	995	1040.405250257679	14.067723340126
1	1000	1052.81522188808	5.10461378684
1	1005	1067.967323806237	1.072801618136
1	1010	1083.669557461542	6.666343207242
1	1015	1110.624782213947	0.211041447543
1	1023	1120.490675852272	2.465625874931
1	1031	1123.568764111178	3.092080611962
1	1039	1132.540106090824	10.971180423293
1	1044	1133.503570585653	11.411510115473
1	1049	1136.850648068983	12.918416404997
1	1051	1137.369539653921	8.397514234954
1	1056	1149.945148108711	16.54066868372
1	1058	1152.157308004872	16.176503381602
1	1060	1152.936705027799	7.092772490811
1	1071	1166.006737818121	9.214757650787
1	1073	1169.393012979959	11.099910505566
1	1075	1174.134661352314	11.503181961134
1	1080	1185.162335959342	6.740759027646
1	1085	1194.291259072169	1.573553739663
1	1102	1233.64934743725	17.356964093698
1	1107	1236.854876620722	17.661200675114
1	1109	1236.92676286226	15.281373107179
1	1111	1240.648201020308	12.593958286112
1	1113	1241.354486942027	9.298694074971
1	1121	1248.087081501252	12.18491978009
1	1126	1253.828800141291	11.595967818365
1	1128	1254.59565867948	12.318384901768
1	1130	1255.267416081325	2.789410838719
1	1135	1258.279837393886	2.270299671046
1	1140	1267.892623313734	9.334215700779
1	1145	1271.072387880903	1.862069111031
1	1153	1310.159524729897	4.835447271795
1	1155	1313.042249379356	5.281744653474
1	1163	1337.10459951439	3.76734329244
1	1180	1352.914059553684	18.067965990663
1	1185	1362.880945095204	24.3548240406
1	1193	1364.965727543206	25.984736462175
1	1195	1365.530220141171	22.744808628094
1	1197	1369.186746940858	26.363772303149
1	1199	1375.65969299406	29.131178571603
1	1204	1387.501029829658	27.995365623188
1	1215	1392.64560538577	29.168470975831
1	1217	1399.006879268362	35.364863349412
1	1231	1403.369045580988	26.436935752326
1	1233	1409.798926534526	22.015891385864
1	1241	1422.738415305862	32.687313880017
1	1249	1436.07039008013	43.648937168512
1	1251	1438.101675952808	37.43413308242
1	1259	1455.21393182065	54.351528062214
1	1264	1458.92014502072	57.996611831255
1	1266	1461.209090460886	59.967920267846
1	1277	1472.290314207581	58.670461271975
1	1282	1485.008235115187	69.006826015419
1	1287	1486.863415083504	58.825254820716
1	1289	1488.56875117522	55.824168562101
1	1294	1494.871405006526	45.129426159948
1	1299	1503.25963278689	50.495976912754
1	1301	1503.763927118434	48.463492678179
1	1303	1505.228598242929	40.357968085619
1	1308	1514.91429816385	45.2263946555
1	1313	1522.574860419656	52.100445079219
1	1315	1524.593947911933	42.711292223335
1	1320	1528.456222297579	42.999208302015
1	1322	1536.530717999946	41.698868521441
1	1327	1539.313943964982	40.397436796415
1	1335	1548.382147736371	34.521816603784
1	1337	1550.243709437027	34.924706386893
1	1339	1551.083101395586	23.162216951484
1	1341	1551.841632149197	14.026470851967
1	1343	1556.722143764223	11.563749287288
1	1351	1565.315549704964	20.114988717933
1	1359	1585.777433357759	28.852522626924
1	1361	1592.717760894441	35.145811109508
1	1363	1597.319635822617	25.880388942456
1	1368	1599.920017668399	17.050535604155
1	1373	1607.867425632855	8.78253442239
1	1375	1611.304656716905	8.333949332316
1	1383	1626.571950251379	5.504809711355
1	1385	1626.711433517449	5.356338846136
1	1396	1632.931274148619	2.359369161621
1	1410	1658.288340907998	27.240642888163
1	1412	1658.87662894407	26.013829774684
1	1417	1664.889661537111	31.267260345981
1	1419	1671.809265604744	32.766668414172
1	1421	1678.043917994309	29.213408946156
1	1423	1679.238016901233	22.835834511297
1	1425	1679.516595314993	18.03824016865
1	1430	1682.831804158706	2.751818070793
1	1435	1698.112691259054	0.476432620683
1	1440	1708.751885564424	5.576858327153
1	1445	1712.9703747755	0.649578472503
1	1450	1718.832072773817	0.079236400876
1	1470	1767.082669030622	41.913640433841
1	1475	1774.918069143013	44.735975693467
1	1480	1775.764048275994	42.548219513594
1	1485	1778.716635768578	45.28067344808
1	1487	1779.266069556662	22.851690842147
1	1489	1783.06413646204	23.2180414709
1	1491	1783.504878344305	16.281647466909
1	1502	1790.522828684296	14.815710590087
1	1504	1800.776192404886	24.57205220785
1	1521	1810.969789688149	24.723793012822
1	1526	1825.365874024238	36.686994356341
1	1531	1839.446525266403	49.336174549932
1	1533	1839.900449504511	38.837185038437
1	1535	1840.757961307366	39.334691443615
1	1537	1841.896289085837	38.321162646069
1	1545	1844.668399367933	35.169027668599
1	1547	1846.178216125486	35.238635245434
1	1549	1849.25723487664	31.436876890878
1	1551	1851.289928565584	12.128339288836
1	1553	1851.478913830356	8.149037149193
1	1561	1853.464748244308	9.660617406419
1	1563	1855.07096930093	2.454852474188
1	1565	1855.270013803787	2.603667223149
1	1576	1861.496950372055	4.642519909086
1	1581	1869.70455619837	9.695849014925
1	1586	1873.853878995726	12.895925125555
1	1588	1874.125432728373	10.601694100148
1	1593	1875.951323911198	4.795301677308
1	1595	1878.302567700145	2.898895949663
1	1606	1892.831128224978	9.020254381573
1	1608	1899.47086703776	10.313406097477
1	1619	1916.331108906112	26.563229580727
1	1621	1917.324684987103	16.945469623355
1	1623	1919.321320596191	13.8478247304
1	1625	1919.567905702974	7.879867786167
1	1633	1939.221355652369	9.72859557526
1	1635	1942.151635375104	10.37264639672
1	1649	1957.435459649574	12.499802952702
1	1651	1958.480621927796	13.018987917059
1	1656	1965.593077768834	15.608829906962
1	1658	1967.35863470177	16.457953194992
1	1663	1968.031087296505	2.987140537048
1	1686	1994.036636808532	26.111946617735
1	1691	2002.434498058019	30.273392931879
1	1693	2002.623861505264	28.903422967745
1	1695	2003.014058353516	21.475684697275
1	1700	2007.166392371298	25.157030716216
1	1702	2010.672434103907	26.183924876677
1	1704	2013.896537692229	27.530645111308
1	1709	2018.538721630473	31.415711968104
1	1711	2020.492585023962	25.238339950574
1	1713	2028.343435609947	24.844558624463
1	1715	2029.410516520312	11.486290789018
1	1720	2036.849253739316	0.508050209683
1	1725	2047.151517651128	2.111280549651
1	1730	2050.274065093644	2.147058504947
1	1741	2073.834099485278	9.294109225834
1	1743	2077.070823530132	11.925403743613
1	1748	2088.228245942107	14.463938654241
1	1753	2096.000784083149	14.425180283867
1	1755	2099.165187294765	5.89039615543
1	1763	2119.557383928642	2.23781406336
1	1768	2126.361038168091	7.801229119144
1	1776	2140.911071731403	20.87303444636
1	1781	2144.751766286352	11.514643749713
1	1783	2145.515461688773	7.144379951698
1	1791	2153.056350110308	9.492762918116
1	1799	2160.872782392357	15.256521666105
1	1804	2163.50685148451	16.266171691651
1	1809	2165.227786143158	8.429115589958
1	1814	2167.179762215349	6.379380722451
1	1819	2176.290937302151	14.497120417881
1	1821	2182.317579778528	17.870815845126
1	1832	2188.399456509254	23.127326839348
1	1837	2189.860033355918	15.928302937499
1	1839	2202.833318656201	20.007447462658
1	1841	2203.752403775534	19.102041208744
1	1849	2211.570388692642	26.194157084524
1	1860	2218.126039677411	29.230796352748
1	1862	2218.755819226818	11.521746079712
1	1864	2218.987417558058	8.144092833742
1	1869	2232.112120989847	20.287854212507
1	1871	2232.477031281727	19.004332755895
1	1882	2234.383635323523	16.879100580978
1	1884	2236.230337653594	12.568944828566
1	1886	2237.188232696425	3.943369888767
1	1888	2239.749442074777	6.452339976664
1	1890	2241.308151375939	7.662354761179
1	1895	2248.852807274437	5.033392344007
1	1900	2252.477155061388	0.54749910609
1	1908	2257.941760214566	3.341442719833
1	1910	2260.698841946681	4.223663591064
1	1921	2279.307507900155	11.046012362818
1	1923	2279.431543006652	11.001642321744
1	1928	2292.42603977721	16.701498830712
1	1930	2293.312111730711	6.152230826746
1	1935	2297.526900958623	0.491847980727
1	1940	2308.178024724206	0.474467211704
1	1948	2321.279686818069	4.585569918627
1	1953	2344.16001075957	26.34908974932
1	1955	2346.558449000706	7.929047380455
1	1963	2367.818555031489	3.715278256918
1	1965	2379.025939592866	11.652357433251
1	1976	2386.141213133163	4.960714454821
1	1981	2391.659474038084	9.350380837018
1	1989	2393.979253725335	11.296856811563
1	1991	2398.969020403735	12.71044297516
1	1993	2399.427843020444	6.567437285513
1	1999	2421.059308316654	28.018913397981
1	2001	2443.039367324069	35.760513007463
