version 2
run Testbench_1-280-20170516-19:18:09-52848
attr configname Testbench_1
attr datetime 20170516-19:18:09
attr experiment Testbench_1
attr inifile omnetpp.ini
attr iterationvars $0=75
attr iterationvars2 "$0=75, $repetition=80"
attr measurement $0=75
attr network Toll_road
attr processid 52848
attr repetition 80
attr replication #80
attr resultdir results
attr runnumber 280
attr seedset 280
param **.numBooths 3
param **.queue[*].serviceTime exponential(5.11s)
param **.source.interArrivalTime exponential(5.854s)
param **.source.numJobs 1000

vector 0  Toll_road.queue[0]  jobsProcessed:vector  ETV
attr interpolationmode  none
attr source  queueingTime
attr title  "jobs processed, vector"
vector 1  Toll_road.sink  lifeTime:vector  ETV
attr interpolationmode  none
attr title  "lifetime of arrived jobs, vector"
attr unit  s
0	3	0.837190991043	0
0	8	5.494893067404	0
0	13	9.48232960763	0
0	26	29.433925085578	13.54953189605
0	31	37.807047461025	18.50324806751
0	33	42.167658938775	18.819047140406
0	35	47.623198910377	23.511150565922
0	37	48.075563970081	11.799141780019
0	43	71.513370617137	0
0	47	82.35468069986	8.166337392325
0	61	89.522324990656	6.132212332468
0	66	98.253281091213	14.173877960975
0	68	98.675648771015	13.737131165985
0	70	99.835508757211	12.848271924758
0	87	110.502419389902	18.13884220228
0	95	114.606809044126	11.923842868087
0	97	114.608864546187	11.297532395413
0	102	119.589304870173	15.541348029903
0	104	121.071595791095	15.385583651713
0	112	123.210936757141	14.101220343671
0	114	130.219211193829	16.808804122158
0	125	137.585260019111	23.414883890908
0	127	139.091559302837	20.926038463778
0	129	140.480028728208	19.362127695648
0	131	142.859967335255	20.866564932634
0	139	158.772054765865	23.104316610838
0	147	168.118141131438	31.144427607383
0	158	175.07848157957	37.609141612075
0	160	175.574167945068	28.117542382308
0	165	176.673626713025	24.101744476565
0	167	181.560673787991	16.156453821474
0	172	187.12995880791	20.936585975576
0	183	217.190147143798	47.78022709917
0	191	222.88996309741	52.582003673877
0	199	235.550234624112	65.010741878909
0	201	235.830027576454	59.940950641642
0	203	237.700676535276	51.494447049008
0	211	241.980900126715	42.745082533243
0	213	243.338885393229	29.368918424423
0	215	244.124351862173	29.772778320627
0	217	248.11956758886	27.536805981726
0	222	259.629055223355	37.300521394823
0	224	260.997676745397	34.501128869891
0	226	262.741225632355	28.495635015114
0	228	262.908383929972	23.390699766765
0	230	263.360919761895	22.752734997891
0	238	279.70922397963	22.689298689997
0	240	280.128055747547	6.756815139482
0	245	283.677075265799	8.096051354678
0	247	285.077865023464	3.379130341234
0	253	287.552953446499	0
0	257	296.645867212196	0.900719666231
0	263	301.466601919668	0
0	270	315.097433886554	9.532275750266
0	275	316.376342440002	4.017849205551
0	277	321.033801683006	5.206224765485
0	285	328.335297895924	4.919940183026
0	299	364.758331953514	40.089902475245
0	301	365.083773643392	29.86273305777
0	306	370.787465420273	28.788793227971
0	311	383.742290406595	38.435172327903
0	313	386.452886833529	33.379050200632
0	315	389.712533068828	22.620183282898
0	320	395.080712958959	22.448899198851
0	328	402.441978122689	11.310357204546
0	333	407.472302531872	11.483224262911
0	341	419.493726063984	22.820294360129
0	343	421.425797263097	17.573527354991
0	348	433.656594948152	23.490563629685
0	363	446.830103418197	35.617611055278
0	365	448.482692692617	22.939950352525
0	367	449.24041415835	12.617471790695
0	369	458.472051591574	17.611070795783
0	371	467.94514319326	24.933478327852
0	373	469.325282957829	24.027639645635
1	5	1.668437478062	0.831246487019
1	10	7.346936698143	1.852043630739
1	27	29.433925085578	19.951595477948
1	32	37.807047461025	21.922654271497
1	34	42.167658938775	22.86385954526
1	36	47.623198910377	24.274587112008
1	38	48.075563970081	23.963515625626
1	40	66.747795532825	30.471373342763
1	48	82.35468069986	10.841310082723
1	62	89.522324990656	15.333981683121
1	67	98.253281091213	14.863168433025
1	69	98.675648771015	14.596245640777
1	71	99.835508757211	14.896991152181
1	88	110.502419389902	23.515182557449
1	96	114.606809044126	22.243231856504
1	98	114.608864546187	11.925898370148
1	103	119.589304870173	16.277972719399
1	105	121.071595791095	17.023638950825
1	113	123.210936757141	17.524924617759
1	115	130.219211193829	21.109494780359
1	126	137.585260019111	24.17485294744
1	128	139.091559302837	24.921183174634
1	130	140.480028728208	22.314507889149
1	132	142.859967335255	21.742066302695
1	140	158.772054765865	36.778652363244
1	148	168.118141131438	32.450402976411
1	159	175.07848157957	38.104768055515
1	161	175.574167945068	38.104827977573
1	166	176.673626713025	29.217001150265
1	168	181.560673787991	28.988791551531
1	173	187.12995880791	21.725738841393
1	184	217.190147143798	50.996774311464
1	192	222.88996309741	53.480043052782
1	200	235.550234624112	65.242275200579
1	202	235.830027576454	65.290534831251
1	204	237.700676535276	61.811599600464
1	212	241.980900126715	55.774670640447
1	214	243.338885393229	44.103067799757
1	216	244.124351862173	30.154384893367
1	218	248.11956758886	33.767994047314
1	223	259.629055223355	39.046293616221
1	225	260.997676745397	38.669142916865
1	227	262.741225632355	36.244677756849
1	229	262.908383929972	28.662793312731
1	231	263.360919761895	23.843235598688
1	239	279.70922397963	39.101039215626
1	241	280.128055747547	23.108130457914
1	246	283.677075265799	10.305834657734
1	248	285.077865023464	9.496841112343
1	250	286.349149009573	4.650414327343
1	258	296.645867212196	9.092913765697
1	260	298.330294937535	2.58514739157
1	271	315.097433886554	13.630831966886
1	276	316.376342440002	10.811184303714
1	278	321.033801683006	8.675308448555
1	286	328.335297895924	12.507720978403
1	300	364.758331953514	41.342974240616
1	302	365.083773643392	40.415344165123
1	307	370.787465420273	35.566424834651
1	312	383.742290406595	41.743618214293
1	314	386.452886833529	41.145768754837
1	316	389.712533068828	36.638696435931
1	321	395.080712958959	27.988363173029
1	329	402.441978122689	29.810164362581
1	334	407.472302531872	16.340681613729
1	342	419.493726063984	23.504647795023
1	344	421.425797263097	24.752365559242
1	349	433.656594948152	29.804325040046
1	364	446.830103418197	36.66407209973
1	366	448.482692692617	37.270200329698
1	368	449.24041415835	23.697671818258
1	370	458.472051591574	21.849109223919
1	372	467.94514319326	27.084162397469
1	374	469.325282957829	26.313618092421
1	376	472.051065467661	26.753422155467
