version 2
run Testbench_1-715-20170516-19:19:42-57332
attr configname Testbench_1
attr datetime 20170516-19:19:42
attr experiment Testbench_1
attr inifile omnetpp.ini
attr iterationvars $0=200
attr iterationvars2 "$0=200, $repetition=15"
attr measurement $0=200
attr network Toll_road
attr processid 57332
attr repetition 15
attr replication #15
attr resultdir results
attr runnumber 715
attr seedset 715
param **.numBooths 3
param **.queue[*].serviceTime exponential(5.11s)
param **.source.interArrivalTime exponential(5.854s)
param **.source.numJobs 1000

vector 0  Toll_road.queue[0]  jobsProcessed:vector  ETV
attr interpolationmode  none
attr source  queueingTime
attr title  "jobs processed, vector"
vector 1  Toll_road.sink  lifeTime:vector  ETV
attr interpolationmode  none
attr title  "lifetime of arrived jobs, vector"
attr unit  s
0	3	2.93258380851	0
0	8	6.730309318463	0
0	18	22.86793764206	12.933345498962
0	20	23.235744433942	9.106754301026
0	22	24.102116865742	7.034106796983
0	28	26.12036462762	0
0	33	36.582387832943	0
0	38	46.12067913068	0
0	42	48.792495924316	2.47967670259
0	50	50.819265721967	0.444455726508
0	52	52.40446394531	2.013761159786
0	58	53.89823259566	0
0	62	59.212945866957	2.603607567745
0	67	63.763730599269	4.447741757596
0	78	67.995744664008	3.810874767364
0	80	80.246215067605	14.916347404969
0	82	81.010034588673	14.50318019043
0	90	95.948022088526	10.28588877005
0	92	97.470720878218	6.410905226425
0	97	111.459319730899	2.73063957286
0	102	126.506503612812	10.758835844497
0	110	131.870050001354	4.465065647411
0	112	134.723625017228	4.709635534315
0	118	140.84109849873	0
0	122	150.045275148835	3.140675214959
0	128	161.521097490111	0
0	133	166.273370272221	0
0	138	180.676923934976	0
0	143	183.328865665942	0
0	148	189.413998184374	0
0	153	203.843402669753	0
0	163	212.011567335825	6.162357719957
0	171	219.500099516947	12.039984050156
0	176	228.871083415025	19.241268783164
0	181	234.902513664832	21.591193242422
0	186	238.958129308062	25.016699277261
0	188	246.295968644153	20.364494074281
0	193	251.454562690081	21.871560411427
0	195	251.921931627903	14.301934320377
0	197	260.218945351681	13.180224187946
0	203	267.709153798597	0
0	208	284.593006626332	0
0	213	292.87650518188	0
0	218	296.653088294908	0
0	223	320.58434800901	0
0	227	323.977604712581	3.199999518236
0	238	327.253871258205	1.75106354754
0	240	327.372860858977	1.17030454899
0	245	331.967446075739	5.246937822216
0	247	331.976723338887	2.416533129904
0	253	345.12926274693	0
0	258	347.940757422739	0
0	263	353.474160035632	0
0	268	386.038716468461	0
0	272	387.065604269717	0.542670487057
0	278	396.139096820678	0
0	283	407.032374454115	0
0	287	410.34270941306	2.758070011266
0	293	431.329738871126	0
0	298	440.335222952588	0
0	303	445.676302159249	0
0	307	449.394861912586	1.080374580351
0	312	452.717427861817	0.21283777258
0	318	458.512435515295	0
0	323	460.809281257453	0
0	327	468.41808632629	0.965754489522
0	333	472.52757526785	0
0	338	475.412505607771	0
0	345	479.266770153651	2.024684508306
0	356	486.020136194842	8.644447497651
0	361	491.420367897526	11.464175406433
0	366	494.693351206302	11.020106739838
0	368	499.191888542304	13.630243261182
0	370	502.948286563206	15.228092897822
0	387	513.008264805405	19.683768841916
0	389	513.014176593537	5.815783706347
0	391	519.934111349164	12.385094553623
0	393	526.306318664438	18.307183504503
0	401	527.589737673874	17.319227112987
0	403	529.873319114053	17.674902010886
0	411	539.536780867967	12.890808281618
0	413	543.045913576021	15.889322049791
0	421	547.924711142835	17.206864121125
0	423	548.548176089545	11.477355116407
0	428	554.888320963552	10.822297231698
0	430	562.296098661123	15.677142483938
0	432	567.725278694934	19.0092984465
0	438	572.874940940456	0
0	442	581.210226540346	2.800253601354
0	448	583.653953077509	0
0	453	595.445944376314	0
0	458	598.322828048308	0
0	463	601.902718604645	0
0	467	609.182960955632	1.627125828569
0	473	618.376861332485	0
0	477	627.370892766925	3.292299073232
0	483	642.910220787368	0
0	490	648.191732657489	5.280892996066
0	498	652.228780023807	4.088930085569
0	500	663.273189151178	14.959926117061
0	505	671.024824393068	21.225272701993
0	507	673.924225183087	9.731421482326
0	524	682.688702666311	8.357284998768
0	526	684.017539537242	7.014632851916
0	534	695.439791949785	18.28327460053
0	542	711.178842008705	32.57035243805
0	553	720.030463203211	38.827135402753
0	555	720.357742150393	35.078318715686
0	569	728.887767250722	40.967737974598
0	571	731.292518684494	27.4413386132
0	585	744.108689799054	35.140998702137
0	590	752.738879771747	39.430639372577
0	598	761.087764103053	46.171334613506
0	612	781.106532793386	63.847792957953
0	614	783.693065085361	62.392524776424
0	619	786.155718291751	64.795938981877
0	621	790.295644695177	65.838045322296
0	623	791.965734960462	66.951482954953
0	628	801.146539558588	65.81848915514
0	633	803.907110142259	68.205430504894
0	635	804.603946872729	67.793581103343
0	637	806.89489179689	68.489161186113
0	639	807.192535920568	57.685571198449
0	644	811.190960258451	53.870016355423
0	646	814.499829565317	53.483948148589
0	648	816.385577157594	54.646516771613
0	656	822.48076411718	56.273079346707
0	664	828.242794011521	57.553588040639
0	666	831.048016068566	56.104658752116
0	668	831.368515273898	45.227813110163
0	670	832.491979702879	33.631218999829
0	678	842.440396925744	38.785265759782
0	689	850.301722665409	42.369288578023
0	697	858.544864049303	39.205938395744
0	702	869.741166459546	50.066309792131
0	710	879.754596071811	56.481688463774
0	715	883.355153067785	58.590943218453
0	729	888.802404857306	47.897648001748
0	731	891.041266388901	50.038896746996
0	736	894.78605454637	52.159782454561
0	738	897.850794281954	54.399479373592
0	740	899.143262394976	50.913522046062
0	748	902.214840498293	51.666369630757
0	750	902.681521139746	46.524735156699
0	755	907.180821267997	39.854873353812
0	757	912.489482828507	42.469198395787
0	759	914.258600445336	43.421894192633
0	761	914.405238948313	34.598195578728
0	763	914.832282087658	30.246469808932
0	765	919.412238065473	34.782860872462
0	767	924.074630603862	38.051872062598
0	775	933.776501706745	47.32739786734
0	777	934.202567688341	42.560706163892
0	779	934.688276392537	33.859957230838
0	781	936.983935016835	35.908557510203
0	783	939.487212662768	36.271928843626
0	785	947.269949579748	20.94373372959
0	790	951.105914223499	22.627595844616
0	792	952.108189942342	2.023970191768
0	798	968.859559350628	0
0	802	972.12888429796	0.616816135806
0	808	981.888084038022	0
0	812	986.001243889563	1.757546374852
0	818	1013.347132659248	0
0	823	1017.751544536123	0
0	828	1033.273240074009	0
0	833	1035.307712438075	0
0	838	1046.839450590957	0
0	845	1054.588369955812	7.055816810065
0	847	1060.375938368869	6.319114489099
0	853	1089.823747576593	0
0	858	1102.007281725762	0
0	863	1105.561446642398	0
0	868	1108.132176491469	0
0	875	1117.793924796726	8.210820549198
0	877	1124.321436680511	12.276342753083
0	897	1141.074129051037	11.717800184438
0	899	1144.004821061591	12.497403106013
0	901	1149.545666433191	15.290909980676
0	906	1156.853184503559	22.213561755915
0	908	1157.465923353122	20.124187179825
0	910	1166.894494447556	28.961921027657
0	918	1174.272723498686	22.593438676459
0	920	1175.773005761688	5.384787634157
0	922	1176.379095765287	3.015413413133
0	928	1184.178650858194	0
0	932	1187.499152106572	0.865841998111
0	937	1190.447625323001	0.085113304354
0	943	1198.821137880908	0
0	948	1203.469416455244	0
0	952	1209.810920004297	3.604403625089
0	958	1215.843877228254	0
0	962	1216.519025926899	0.596678802965
0	968	1225.416902205607	0
0	987	1272.611729477212	46.562419464899
0	989	1273.826395562717	36.346147427838
0	991	1277.049229656643	37.926457235863
0	994	1282.522777307805	31.388719066121
0	996	1289.219100991057	35.352651756402
0	998	1307.438558018567	46.596921297426
1	5	4.99997077786	2.06738696935
1	19	22.86793764206	16.137628323597
1	21	23.235744433942	13.301152290844
1	23	24.102116865742	9.973126732826
1	25	25.866096782661	8.798086713902
1	30	35.30117236773	9.18080774011
1	35	41.461153042763	4.87876520982
1	43	48.792495924316	2.671816793636
1	51	50.819265721967	4.506446500241
1	53	52.40446394531	2.029653949851
1	55	53.859096278846	3.468393493322
1	63	59.212945866957	5.314713271297
1	68	63.763730599269	7.154392300057
1	79	67.995744664008	8.679755822335
1	81	80.246215067605	16.061345170961
1	83	81.010034588673	15.680166926037
1	91	95.948022088526	29.441167690283
1	93	97.470720878218	11.808587559742
1	98	111.459319730899	20.399504079106
1	103	126.506503612812	17.777823454773
1	111	131.870050001354	16.122382233039
1	113	134.723625017228	7.318640663285
1	115	139.006891904036	8.992902421123
1	123	150.045275148835	9.204176650105
1	125	152.519821168389	5.615221234513
1	130	161.813470652227	0.292373162116
1	135	168.840496508039	2.567126235818
1	140	180.773092568118	0.096168633142
1	145	185.974193413033	2.645327747091
1	150	190.765022993567	1.351024809193
1	164	212.011567335825	8.168164666072
1	172	219.500099516947	13.650889901079
1	177	228.871083415025	21.410967948234
1	182	234.902513664832	25.272699032971
1	187	238.958129308062	25.646808885652
1	189	246.295968644153	32.354538613352
1	194	251.454562690081	25.523088120209
1	196	251.921931627903	22.338929349249
1	198	260.218945351681	22.598948044155
1	200	265.761869029774	18.723147866039
1	205	277.23876856333	9.529614764733
1	210	289.145512041843	4.552505415511
1	215	293.58838390383	0.71187872195
1	220	313.117745899458	16.46465760455
1	228	323.977604712581	3.393256703571
1	239	327.253871258205	6.47626606386
1	241	327.372860858977	1.870053148312
1	246	331.967446075739	5.764889765752
1	248	331.976723338887	5.256215085364
1	250	333.901225055327	4.341034846344
1	255	347.348939936673	2.219677189743
1	260	353.233764991464	5.293007568725
1	265	359.154264760892	5.68010472526
1	273	387.065604269717	1.026887801256
1	275	389.761347259665	3.238413477005
1	280	396.728279718632	0.589182897954
1	288	410.34270941306	3.310334958945
1	290	411.260476005944	3.67583660415
1	295	432.277009973772	0.947271102646
1	300	445.282123773967	4.946900821379
1	308	449.394861912586	3.718559753337
1	313	452.717427861817	4.402940529582
1	315	454.946142490055	2.441552400818
1	320	460.115504639815	1.60306912452
1	328	468.41808632629	7.608805068837
1	330	471.838192972397	4.385861135629
1	335	475.187961164184	2.660385896334
1	346	479.266770153651	3.85426454588
1	357	486.020136194842	8.778050549497
1	362	491.420367897526	14.044679200335
1	367	494.693351206302	14.737158715209
1	369	499.191888542304	15.51864407584
1	371	502.948286563206	17.386641282084
1	388	513.008264805405	25.288071140021
1	390	513.014176593537	19.689680630048
1	392	519.934111349164	12.735718461974
1	394	526.306318664438	18.757301868897
1	402	527.589737673874	19.590602513939
1	404	529.873319114053	19.602808553166
1	412	539.536780867967	27.3383637648
1	414	543.045913576021	16.399940989672
1	422	547.924711142835	20.768119616605
1	424	548.548176089545	17.830329067835
1	429	554.888320963552	17.817499990414
1	431	562.296098661123	18.230074929269
1	433	567.725278694934	21.106322517749
1	435	568.627391916543	19.911411668109
1	443	581.210226540346	8.33528559989
1	445	583.097111048858	4.687138109866
1	450	585.268631238027	1.614678160518
1	455	595.67165621104	0.225711834726
1	460	600.216164812807	1.893336764499
1	468	609.182960955632	7.280242350987
1	470	610.766724094365	3.210888967302
1	478	627.370892766925	8.99403143444
1	480	629.338896317567	5.260302623874
1	491	648.191732657489	5.281511870121
1	499	652.228780023807	9.317940362384
1	501	663.273189151178	15.13333921294
1	506	671.024824393068	22.711561358951
1	508	673.924225183087	24.124673492012
1	525	682.688702666311	18.49589896555
1	527	684.017539537242	9.686121869699
1	535	695.439791949785	18.436885264459
1	543	711.178842008705	34.02232465945
1	554	720.030463203211	41.421973632556
1	556	720.357742150393	39.154414349935
1	570	728.887767250722	43.608343816015
1	572	731.292518684494	43.37248940837
1	586	744.108689799054	40.25750972776
1	591	752.738879771747	43.77118867483
1	599	761.087764103053	47.779523703883
1	613	781.106532793386	66.190103303839
1	615	783.693065085361	66.434325249928
1	620	786.155718291751	64.855177982814
1	622	790.295644695177	68.935865385303
1	624	791.965734960462	67.508135587581
1	629	801.146539558588	76.132287553079
1	634	803.907110142259	68.579059738811
1	636	804.603946872729	68.902267235364
1	638	806.89489179689	70.084526027504
1	640	807.192535920568	68.786805309791
1	645	811.190960258451	61.683995536332
1	647	814.499829565317	57.178885662289
1	649	816.385577157594	55.369695740866
1	657	822.48076411718	60.741703731199
1	665	828.242794011521	62.035109241048
1	667	831.048016068566	60.358810097684
1	669	831.368515273898	56.425157957448
1	671	832.491979702879	46.351277539144
1	679	842.440396925744	43.579636222694
1	690	850.301722665409	46.646591499447
1	698	858.544864049303	50.612429961917
1	703	869.741166459546	50.402240805987
1	711	879.754596071811	60.079739404396
1	716	883.355153067785	60.082245459748
1	730	888.802404857306	64.038195007974
1	732	891.041266388901	50.136509533343
1	737	894.78605454637	53.783684904465
1	739	897.850794281954	55.224522190145
1	741	899.143262394976	55.691947486614
1	749	902.214840498293	53.985100149379
1	751	902.681521139746	52.13305027221
1	756	907.180821267997	51.02403528495
1	758	912.489482828507	45.163534914322
1	760	914.258600445336	44.238316012616
1	762	914.405238948313	43.56853269561
1	764	914.832282087658	35.025238718073
1	766	919.412238065473	34.826425786747
1	768	924.074630603862	39.445253410851
1	776	933.776501706745	47.753743165481
1	778	934.202567688341	47.753463848936
1	780	934.688276392537	43.046414868088
1	782	936.983935016835	36.155615855136
1	784	939.487212662768	38.411835156136
1	786	947.269949579748	44.054665760606
1	791	951.105914223499	24.779698373341
1	793	952.108189942342	23.629871563459
1	795	955.875030543946	5.790810793372
1	803	972.12888429796	3.269324947332
1	805	974.849653524656	3.337585362502
1	813	986.001243889563	4.113159851541
1	815	989.358169633358	5.114472118647
1	820	1016.399990193518	3.05285753427
1	825	1019.579608937312	1.828064401189
1	830	1033.378730691702	0.105490617693
1	835	1038.03894112241	2.731228684335
1	846	1054.588369955812	7.748919364855
1	848	1060.375938368869	12.843385223122
1	850	1071.527093288339	17.470269408569
1	855	1097.687316279709	7.863568703116
1	860	1102.627212543327	0.619930817565
1	865	1106.801068975008	1.23962233261
1	876	1117.793924796726	9.661748305257
1	878	1124.321436680511	14.738332432983
1	898	1141.074129051037	29.029035123609
1	900	1144.004821061591	14.648492194992
1	902	1149.545666433191	18.038248477613
1	907	1156.853184503559	22.598428051044
1	909	1157.465923353122	22.826300605478
1	911	1166.894494447556	29.552758274259
1	919	1174.272723498686	36.340150078787
1	921	1175.773005761688	24.093720939461
1	923	1176.379095765287	5.990877637756
1	925	1180.967768772807	7.604086420653
1	933	1187.499152106572	3.320501248378
1	938	1190.447625323001	3.81431521454
1	940	1198.32592831699	7.963416298343
1	945	1202.728815986771	3.907678105863
1	953	1209.810920004297	6.341503549053
1	955	1211.234478731829	5.027962352621
1	963	1216.519025926899	0.675148698645
1	965	1224.494288704482	8.571941580548
1	988	1272.611729477212	47.194827271605
1	990	1273.826395562717	47.777085550404
1	992	1277.049229656643	39.568981521764
1	995	1282.522777307805	43.400004887025
1	997	1289.219100991057	38.085042749373
1	999	1307.438558018567	53.572108783912
1	1001	1317.558116926887	56.716480205746
