version 2
run Testbench_1-786-20170516-19:19:55-56156
attr configname Testbench_1
attr datetime 20170516-19:19:55
attr experiment Testbench_1
attr inifile omnetpp.ini
attr iterationvars $0=200
attr iterationvars2 "$0=200, $repetition=86"
attr measurement $0=200
attr network Toll_road
attr processid 56156
attr repetition 86
attr replication #86
attr resultdir results
attr runnumber 786
attr seedset 786
param **.numBooths 3
param **.queue[*].serviceTime exponential(5.11s)
param **.source.interArrivalTime exponential(5.854s)
param **.source.numJobs 1000

vector 0  Toll_road.queue[0]  jobsProcessed:vector  ETV
attr interpolationmode  none
attr source  queueingTime
attr title  "jobs processed, vector"
vector 1  Toll_road.sink  lifeTime:vector  ETV
attr interpolationmode  none
attr title  "lifetime of arrived jobs, vector"
attr unit  s
0	3	8.273952983443	0
0	7	9.630448734668	0.683263371474
0	13	22.080934931262	0
0	18	34.834053346689	0
0	25	37.248642370119	1.950375576118
0	33	45.858586785734	8.709751534526
0	38	47.941045827123	10.413729964653
0	40	50.290178158593	8.899525031666
0	45	53.946868940322	7.810193196144
0	47	56.000262890803	2.098263476974
0	52	61.304842502303	3.402151303965
0	58	76.868459296031	0
0	63	82.486418586853	0
0	67	84.703796742864	1.871327814099
0	73	118.844033856151	0
0	78	125.733827485529	0
0	82	129.330217668943	3.415363846342
0	88	139.073084885833	0
0	93	144.03947943288	0
0	106	167.136024285413	15.314380396638
0	114	184.737020509433	32.725607219676
0	116	187.115528366443	28.983798658662
0	118	190.152628303173	24.713055201689
0	123	195.92082123707	24.922745901298
0	125	199.666135793494	20.117724793803
0	133	208.013394598154	14.080996903343
0	135	211.475161982756	9.558228725054
0	140	211.734125175375	8.054756824706
0	142	212.948552044853	1.471010070834
0	147	219.716607666239	4.75210242415
0	153	241.934325390502	0
0	157	249.718865617838	6.738760002495
0	162	257.211493286888	4.590035949859
0	167	269.434543969766	2.709025370059
0	175	272.913239806176	2.488088180327
0	177	274.008767263575	3.025722701415
0	183	278.10634262245	0
0	188	284.008538255915	0
0	193	290.241844700572	0
0	198	294.618935156696	0
0	211	320.625418880909	20.777038653259
0	219	324.705672769339	18.104457702897
0	221	329.647437276917	19.077387900244
0	223	333.888222665557	18.453358440207
0	234	338.56237447846	16.184854636631
0	236	338.915447298119	15.782989682686
0	241	347.362135842881	12.807879429267
0	243	351.560741950284	14.571965715339
0	245	353.329643089417	16.06379646028
0	247	357.306706102051	10.729582643533
0	253	362.40797973278	0
0	263	375.192859556414	8.29850088696
0	277	381.545757094935	11.873883871036
0	285	388.722167629002	18.335785205075
0	287	390.273012882363	10.343746684112
0	289	402.780490602282	22.412407816026
0	291	407.27810813563	26.388547209933
0	296	410.551541852658	29.1581342207
0	310	419.24335921136	37.067685961517
0	312	425.200037679339	37.025916005669
0	314	426.921871887503	17.465293985352
0	316	432.215992481489	18.194307034678
0	318	433.51214826158	16.265035827548
0	338	457.363816874482	39.25002918591
0	346	467.538347391622	49.209615584003
0	357	476.566755046759	37.963832586922
0	371	496.485203298329	54.463628624139
0	379	504.279647436361	60.293190407014
0	381	512.803368938524	60.744431268739
0	383	513.719719626033	60.003026231528
0	385	518.289963827658	63.755492147634
0	390	523.010686522581	65.618034477405
0	392	524.21305177449	61.805639851616
0	400	526.208852287362	56.779484817407
0	408	539.884465823392	65.536016368169
0	413	544.913631935086	68.655585300469
0	418	551.018313247423	68.886524769916
0	423	555.635654717516	70.822964322322
0	428	563.484422507888	70.313866449892
0	433	570.906286873053	75.307053874534
0	435	583.741197313174	83.70199819754
0	437	590.511852050998	89.464496548088
0	439	590.568364169677	69.964496313177
0	444	591.386259684446	67.141841378798
0	446	592.447288370275	67.569903674301
0	448	599.619149686784	64.525735044753
0	453	601.174603001883	62.648298608524
0	455	605.219653470016	64.247368600367
0	457	612.421393954816	65.563114331416
0	465	624.353907297983	71.686640753923
0	473	627.696169354215	69.709364682836
0	475	631.053974397007	66.065698695759
0	480	646.519181323142	55.20140121929
0	482	647.610137783854	46.625756042452
0	490	655.268064004392	37.635098085139
0	492	655.690848533608	37.235602837014
0	494	658.961610823338	33.033322144591
0	496	659.205632288231	32.298016225681
0	498	659.603619880586	17.044904627371
0	506	665.617325143601	17.844165508191
0	517	676.665532640328	26.607635433503
0	519	683.661576659169	23.025706321151
0	521	689.057612224718	25.355082164933
0	523	692.07480892967	26.095041160626
0	525	698.205266593964	29.409422366687
0	530	711.998044106406	36.06643435565
0	538	727.787410752267	20.426159142036
0	540	731.307591338322	14.623820054167
0	542	732.429003370474	5.650536018226
0	547	734.640758379079	2.169148470623
0	555	736.815016340354	1.922376934935
0	557	738.818388023693	3.638331621863
0	568	749.051148286951	6.915370871347
0	573	763.278727985923	20.977026347822
0	578	766.981709500039	19.189830341498
0	586	773.99476676344	19.723551553593
0	588	776.368162106278	10.70163177458
0	590	777.38386991014	7.97708482571
0	592	780.318215058392	10.246365504265
0	597	781.985213502341	0.657545042607
0	608	797.203291575936	12.498082442936
0	613	802.345650611677	16.836443637744
0	615	803.805130046144	10.456286763125
0	623	814.782871253103	12.904366108305
0	625	814.895473647207	7.229723046484
0	642	821.127732490866	10.060204414328
0	647	826.600189550126	11.662345884575
0	655	834.056186959423	17.04646858876
0	657	839.979708830322	21.172142229967
0	662	841.465090251687	22.590926197819
0	664	846.036210701733	26.6680155154
0	666	850.110086069806	26.406618591303
0	671	855.083312595348	25.356189213968
0	676	858.228528546803	24.364345607497
0	684	866.685125340395	25.516897863043
0	686	867.047267997925	12.667632901857
0	694	873.479838645043	15.494148841067
0	699	880.016593268452	19.63264679813
0	710	883.713952154839	20.136757442998
0	712	888.874142792218	21.81591568092
0	717	896.743845515907	23.567578917444
0	719	901.518879779834	23.527594523153
0	724	911.170432041032	29.646961833822
0	729	916.074145109766	33.417249275238
0	731	917.607334048157	34.357272874376
0	733	918.1427048393	24.503890861219
0	735	923.615137317951	18.08265364625
0	737	923.818670123741	12.389257158301
0	743	928.38645349222	0
0	748	945.286128957824	0
0	753	947.904565236133	0
0	758	953.453440365223	0
0	765	956.341482129187	1.653226473581
0	767	958.499944921847	3.188471356483
0	775	964.82433454605	5.415612728436
0	777	965.736736656539	1.549367605542
0	783	971.318771291265	0
0	788	974.814304159553	0
0	798	982.599981402972	3.051968221997
0	800	985.359377112964	5.060419625016
0	805	992.385606164172	9.911200649484
0	807	993.002514464088	7.184338939156
0	813	998.112098895119	0
0	818	1001.422836497136	0
0	823	1007.794813097898	0
0	828	1019.072163296897	0
0	833	1027.366912767989	0
0	837	1039.499824929578	8.653848089124
0	843	1044.690548243485	0
0	848	1050.324692729681	0
0	853	1065.685765879869	0
0	858	1069.445705685745	0
0	880	1097.646729864585	23.511060220441
0	885	1104.695400547315	21.364684302626
0	887	1111.50621095896	27.555583363026
0	889	1114.449207539715	26.005206824
0	891	1115.174317956185	25.20130957483
0	899	1129.017459586144	36.46261298618
0	913	1146.36450813037	49.478417706749
0	915	1147.922775777183	48.264586125372
0	917	1148.026885748204	31.940252923738
0	922	1151.5803972139	27.245193296773
0	924	1152.55633991453	22.623293709613
0	926	1156.29291034513	21.999153366931
0	937	1165.763363673088	25.199505969099
0	945	1169.73428785665	23.677238679519
0	947	1171.595897943873	21.974869228356
0	949	1176.710386874052	20.385430803461
0	957	1182.856784648884	25.199604044588
0	959	1185.232876723661	25.752961067371
0	973	1203.969907858936	38.181198328799
0	978	1205.498611077533	38.865042717042
0	984	1211.079920142154	32.293291403822
0	986	1223.93451107507	44.889352599546
0	988	1225.341102918563	29.072808172191
0	990	1227.455555960456	28.012813672123
0	992	1232.328100778449	31.308714166424
0	994	1233.20082609606	30.403106559504
0	996	1234.013408137888	29.680404221117
0	998	1235.510904364111	27.491290131
1	8	9.630448734668	1.356495751225
1	10	12.128648218271	3.181462855077
1	15	23.872934314382	1.79199938312
1	26	37.248642370119	2.41458902343
1	34	45.858586785734	10.560319991733
1	39	47.941045827123	10.792210575915
1	41	50.290178158593	12.762862296123
1	46	53.946868940322	12.556215813395
1	48	56.000262890803	9.863587146625
1	53	61.304842502303	7.402843088474
1	55	63.051489573224	5.148798374886
1	60	79.908717755446	3.040258459415
1	68	84.703796742864	2.217378156011
1	70	101.091102941417	18.258634012652
1	75	119.287792334383	0.443758478232
1	83	129.330217668943	3.596390183414
1	85	135.461369446598	9.546515623997
1	90	142.552508479171	3.479423593338
1	107	167.136024285413	23.096544852533
1	115	184.737020509433	32.915376620658
1	117	187.115528366443	35.104115076686
1	119	190.152628303173	32.020898595392
1	124	195.92082123707	30.481248135586
1	126	199.666135793494	28.668060457722
1	134	208.013394598154	28.464983598463
1	136	211.475161982756	17.542764287945
1	141	211.734125175375	9.817191917673
1	143	212.948552044853	9.269183694184
1	148	219.716607666239	8.23906569222
1	150	220.448268783753	5.483763541664
1	158	249.718865617838	7.784540227336
1	163	257.211493286888	14.231387671545
1	168	269.434543969766	16.813086632737
1	176	272.913239806176	6.187721206469
1	178	274.008767263575	3.583615637726
1	180	275.772280508997	4.789235946837
1	185	280.501591282327	2.395248659877
1	190	287.052277202567	3.043738946652
1	195	290.929968626661	0.688123926089
1	212	320.625418880909	26.006483724213
1	220	324.705672769339	24.857292541689
1	222	329.647437276917	23.046222210475
1	224	333.888222665557	23.318173288884
1	235	338.56237447846	23.12751025311
1	237	338.915447298119	16.53792745629
1	242	347.362135842881	24.229678227448
1	244	351.560741950284	17.00648553667
1	246	353.329643089417	16.340866854472
1	248	357.306706102051	20.040859472914
1	250	359.058866129881	12.481742671363
1	264	375.192859556414	12.784879823634
1	278	381.545757094935	14.651398425481
1	286	388.722167629002	19.050294405103
1	288	390.273012882363	19.886630458436
1	290	402.780490602282	22.851224404031
1	292	407.27810813563	26.910025349374
1	297	410.551541852658	29.661980926961
1	311	419.24335921136	37.849951579402
1	313	425.200037679339	43.024364429496
1	315	426.921871887503	38.747750213833
1	317	432.215992481489	22.759414579338
1	319	433.51214826158	19.490462814769
1	339	457.363816874482	40.11670444045
1	347	467.538347391622	49.42455970305
1	358	476.566755046759	58.23802323914
1	372	496.485203298329	57.882280838492
1	380	504.279647436361	62.258072762171
1	382	512.803368938524	68.816911909177
1	384	513.719719626033	61.660781956248
1	386	518.289963827658	64.573270433153
1	391	523.010686522581	68.476214842557
1	393	524.21305177449	66.820399729314
1	401	526.208852287362	63.801440364488
1	409	539.884465823392	70.455098353437
1	414	544.913631935086	70.565182479863
1	419	551.018313247423	74.760266612806
1	424	555.635654717516	73.503866240009
1	429	563.484422507888	78.671732112694
1	434	570.906286873053	77.735730815057
1	436	583.741197313174	88.141964314655
1	438	590.511852050998	90.472652935364
1	440	590.568364169677	89.521008666767
1	445	591.386259684446	70.782391827946
1	447	592.447288370275	68.202870064627
1	449	599.619149686784	74.74176499081
1	454	601.174603001883	66.081188359852
1	456	605.219653470016	66.693349076657
1	458	612.421393954816	71.449109085167
1	466	624.353907297983	77.495627674583
1	474	627.696169354215	75.028902810155
1	476	631.053974397007	73.067169725628
1	481	646.519181323142	81.530905621894
1	483	647.610137783854	56.292357680002
1	491	655.268064004392	54.28368226299
1	493	655.690848533608	38.057882614355
1	495	658.961610823338	40.506365126744
1	497	659.205632288231	33.277343609484
1	499	659.603619880586	32.696003818036
1	507	665.617325143601	23.058609890386
1	518	676.665532640328	28.892373004918
1	520	683.661576659169	33.603679452344
1	522	689.057612224718	28.4217418867
1	524	692.07480892967	28.372278869885
1	526	698.205266593964	32.22549882492
1	531	711.998044106406	43.202199879129
1	539	727.787410752267	51.855801001511
1	541	731.307591338322	23.946339728091
1	543	732.429003370474	15.745232086319
1	548	734.640758379079	7.862291026831
1	556	736.815016340354	4.343406431898
1	558	738.818388023693	3.925748618274
1	569	749.051148286951	13.871091885121
1	574	763.278727985923	21.142950570319
1	579	766.981709500039	24.680007861938
1	587	773.99476676344	26.202887604899
1	589	776.368162106278	22.096946896431
1	591	777.38386991014	11.717339578442
1	593	780.318215058392	10.911429973962
1	598	781.985213502341	11.913363948214
1	609	797.203291575936	15.875623116202
1	614	802.345650611677	17.640441478677
1	616	803.805130046144	18.295923072211
1	624	814.782871253103	21.434027970084
1	626	814.895473647207	13.016968502409
1	643	821.127732490866	13.461981890143
1	648	826.600189550126	15.532661473588
1	656	834.056186959423	19.118343293872
1	658	839.979708830322	22.969990459659
1	663	841.465090251687	22.657523651332
1	665	846.036210701733	27.162046647865
1	667	850.110086069806	30.741890883473
1	672	855.083312595348	31.379845116845
1	677	858.228528546803	28.501405165423
1	685	866.685125340395	32.820942401089
1	687	867.047267997925	25.879040520573
1	695	873.479838645043	19.100203548975
1	700	880.016593268452	22.030903464476
1	711	883.713952154839	23.330005684517
1	713	888.874142792218	25.296948080377
1	718	896.743845515907	29.685618404609
1	720	901.518879779834	28.342613181371
1	725	911.170432041032	33.179146784351
1	730	916.074145109766	34.550674902556
1	732	917.607334048157	34.950438213629
1	734	918.1427048393	34.892643665519
1	736	923.615137317951	29.97632333987
1	738	923.818670123741	18.28618645204
1	740	923.971548433446	12.542135468006
1	745	937.774759692325	9.388306200105
1	750	945.979808530492	0.693679572668
1	755	952.745411094054	4.840845857921
1	766	956.341482129187	2.888041763964
1	768	958.499944921847	3.811689266241
1	776	964.82433454605	9.512860980686
1	778	965.736736656539	6.328014838925
1	780	969.330269043865	5.142899992868
1	785	972.880265061221	1.561493769956
1	799	982.599981402972	7.785677243419
1	801	985.359377112964	5.811363931989
1	806	992.385606164172	12.086648676224
1	808	993.002514464088	10.5281089494
1	810	994.491099228575	8.672923703643
1	815	1000.249489272989	2.13739037787
1	820	1004.699433453114	3.276596955978
1	825	1009.130680949074	1.335867851176
1	830	1020.932586685543	1.860423388646
1	838	1039.499824929578	12.132912161589
1	840	1041.361505989277	10.515529148823
1	845	1047.579011952368	2.888463708883
1	850	1051.290783880274	0.966091150593
1	855	1065.774518926251	0.088753046382
1	881	1097.646729864585	28.20102417884
1	886	1104.695400547315	30.559730903171
1	888	1111.50621095896	28.175494714271
1	890	1114.449207539715	30.498579943781
1	892	1115.174317956185	26.73031724047
1	900	1129.017459586144	39.044451204789
1	914	1146.36450813037	53.809661530406
1	916	1147.922775777183	51.036685353562
1	918	1148.026885748204	48.368696096393
1	923	1151.5803972139	35.493764389434
1	925	1152.55633991453	28.221135997403
1	927	1156.29291034513	26.359864140213
1	938	1165.763363673088	31.469606694889
1	946	1169.73428785665	29.170430152661
1	948	1171.595897943873	25.538848766742
1	950	1176.710386874052	27.089358158535
1	958	1182.856784648884	26.531828578293
1	960	1185.232876723661	27.575696119365
1	974	1203.969907858936	44.489992202646
1	979	1205.498611077533	39.709901547396
1	985	1211.079920142154	44.446351781663
1	987	1223.93451107507	45.147882336738
1	989	1225.341102918563	46.295944443039
1	991	1227.455555960456	31.187261214084
1	993	1232.328100778449	32.885358490116
1	995	1233.20082609606	32.181439484035
1	997	1234.013408137888	31.215688601332
1	999	1235.510904364111	31.17790044734
1	1001	1239.509009734511	31.4893955014
