version 2
run Testbench_1-1244-20170516-19:22:05-61168
attr configname Testbench_1
attr datetime 20170516-19:22:05
attr experiment Testbench_1
attr inifile omnetpp.ini
attr iterationvars $0=325
attr iterationvars2 "$0=325, $repetition=44"
attr measurement $0=325
attr network Toll_road
attr processid 61168
attr repetition 44
attr replication #44
attr resultdir results
attr runnumber 1244
attr seedset 1244
param **.numBooths 3
param **.queue[*].serviceTime exponential(5.11s)
param **.source.interArrivalTime exponential(5.854s)
param **.source.numJobs 1000

vector 0  Toll_road.queue[0]  jobsProcessed:vector  ETV
attr interpolationmode  none
attr source  queueingTime
attr title  "jobs processed, vector"
vector 1  Toll_road.sink  lifeTime:vector  ETV
attr interpolationmode  none
attr title  "lifetime of arrived jobs, vector"
attr unit  s
0	3	6.461856009074	0
0	8	12.559185121148	0
0	13	23.582179344851	0
0	17	27.64450382175	2.571440755432
0	23	45.863770726458	0
0	28	51.552427608749	0
0	32	52.654846093944	0.417797391717
0	37	57.252823718675	1.288094844039
0	43	59.478512339131	0
0	48	66.509629554717	0
0	53	79.977618417193	0
0	58	81.540450547708	0
0	62	85.786012122788	3.899651598146
0	68	95.811720076769	0
0	73	100.706180613151	0
0	78	117.335752048253	0
0	82	126.249114264855	3.03634757221
0	88	132.686797843113	0
0	93	135.794819171728	0
0	106	149.650171173702	9.280910023801
0	111	154.079373983331	11.220907016909
0	113	156.51740153117	11.204304554002
0	115	158.193239941296	12.229722045129
0	120	164.404034404508	13.63545067188
0	122	166.153911113126	2.704808894805
0	128	186.640530871877	0
0	133	196.406636888276	0
0	143	205.053113882324	8.442011101731
0	145	207.356118857431	10.076340242453
0	147	209.049426631851	4.807271074869
0	153	228.958049646764	0
0	158	239.071910986516	0
0	168	253.608706935969	8.688109350622
0	179	262.881713304231	14.367877255212
0	181	267.378135622966	17.200060331717
0	183	273.480226192343	14.614176197707
0	188	283.730707708269	23.698454237183
0	190	283.92810485898	21.699523199784
0	198	286.747263829353	7.163406003876
0	206	295.874719773051	9.955626145578
0	208	301.579304700278	15.252500975934
0	210	307.536832177054	19.445247134824
0	212	309.009245798039	14.390776316607
0	220	319.552359400816	9.872603129127
0	222	321.271523530659	4.751959148193
0	227	327.644329941913	4.710660297544
0	233	332.072355271754	0
0	238	334.743358188326	0
0	243	335.950786068519	0
0	248	348.794020472136	0
0	252	355.632475045398	2.708017581352
0	258	358.33583544632	0
0	262	373.702907724937	0.949134767799
0	276	386.847960081152	10.838086370926
0	278	388.896858516433	8.568985167388
0	289	398.926542747407	17.849853039157
0	294	400.034719498548	13.694275353791
0	296	403.905337710215	14.488773478658
0	304	423.648417856119	31.412721338103
0	312	425.588435026361	30.689450354713
0	314	426.73833928654	27.699914024863
0	322	427.963555512802	15.760997422743
0	327	434.76834510099	19.68466947901
0	335	437.500232043065	13.002558790269
0	337	439.477351146103	14.040244557661
0	339	439.739540008816	12.78584275741
0	344	445.520654053457	18.147397930755
0	346	447.218946876112	15.81865202011
0	351	460.060084344612	22.781354634004
0	353	476.660255335019	39.20599929939
0	355	478.522430958375	35.670085254029
0	357	480.492937232258	23.860644134931
0	362	490.37959375674	8.640649666266
0	368	506.137717753101	0
0	373	512.462538145482	0
0	380	516.477222055434	2.666065889651
0	388	522.758051282888	8.138226972269
0	390	522.930667285445	6.306172717511
0	407	542.092525910656	21.106110520566
0	415	550.456185680122	27.513748422127
0	423	558.298948730889	32.928285765981
0	425	559.958817394086	28.847083017626
0	430	566.90564082746	30.769592105049
0	432	574.387411421883	38.031740762193
0	434	583.338312447499	38.376611635207
0	436	587.124370003264	41.895507329061
0	441	596.520652872827	42.848875789817
0	446	600.613620243574	43.776354860842
0	448	639.113196188688	77.889553659623
0	450	643.692808558669	51.596995072599
0	452	643.731635387027	46.929699775419
0	458	650.861810062476	0
0	463	659.261766363129	0
0	467	661.524316599937	0.077713011041
0	475	667.959525487707	6.167162438187
0	477	668.759858192419	1.804533363924
0	482	671.670566487316	1.508842778009
0	488	685.479944584634	0
0	492	703.836518937548	1.709167167507
0	506	717.14192924877	12.11927719479
0	508	726.359518433101	20.876845620245
0	510	728.170869754847	19.993119422641
0	527	740.767120509423	27.142125936106
0	529	743.083547963412	12.774174158221
0	534	747.240488733414	15.227072236762
0	536	750.944637365849	13.846095092032
0	541	752.201500203724	14.344085259989
0	543	752.798038537799	12.086235112843
0	545	758.2493260058	11.246661639926
0	547	760.444889498569	9.336522492969
0	553	767.23698179107	0
0	557	773.614575633872	3.826195840746
0	563	780.587182248672	0
0	567	783.576230460544	0.239265840014
0	572	788.290038729833	4.10492454186
0	578	791.909030581834	0
0	582	796.213863387842	2.035681733606
0	588	816.937714605271	0
0	593	835.916711265661	0
0	598	842.754626652495	0
0	602	849.203588909836	6.316711159107
0	634	886.09792296895	33.45417985925
0	639	895.32388067725	40.692444761274
0	647	902.31408532835	47.095712166813
0	652	911.275122366325	43.729457767978
0	657	915.631892454853	44.600460257309
0	665	919.428461522045	47.088979289729
0	670	932.857451674497	59.845295746124
0	678	951.545629058976	70.905295551012
0	683	964.411666167451	81.189826306706
0	685	965.050541365584	80.839731086023
0	687	971.519385386642	84.260004841516
0	689	977.786155732979	82.362941917054
0	691	983.044024305397	87.341357835237
0	699	989.309238905872	78.382548279285
0	701	990.374195156246	75.125072697408
0	703	991.541294772128	73.732851591753
0	708	994.199107590168	76.380155420469
0	713	1003.789093439578	76.608474901494
0	715	1007.860759436915	74.701463166748
0	723	1016.129784442195	65.391269279688
0	728	1022.41971174083	64.199664998957
0	733	1025.27891013622	37.186049868631
0	735	1027.512423535606	38.635301062148
0	737	1032.74201780344	38.719005019734
0	739	1032.906935263698	38.585233525967
0	741	1033.367933128242	24.479147245278
0	749	1046.466809566682	36.770499574111
0	757	1057.21052874487	39.396291169836
0	759	1058.776938237584	33.612246549667
0	761	1064.958068692615	22.696827390872
0	766	1072.99467443665	26.684481669166
0	774	1080.036077900192	32.688261385357
0	776	1083.848839370328	26.733399741338
0	781	1088.647160107165	21.563629251162
0	783	1090.939503271539	17.700866869837
0	785	1094.361568139242	18.552752101898
0	790	1102.499120432882	18.124158276932
0	795	1103.824629505528	2.004772323655
0	797	1103.956325832051	1.385735230666
0	805	1109.567046341409	3.315236439399
0	807	1116.230003269401	7.55574457379
0	813	1120.908160551183	0
0	818	1133.46358364507	0
0	823	1149.490086702527	0
0	828	1158.398765352919	0
0	841	1164.447021915507	3.599781062402
0	843	1164.919768713719	3.865013974191
0	845	1165.472157055672	1.898830526906
0	853	1168.056109912629	4.004834749774
0	858	1172.145866528094	6.507076863365
0	860	1172.58728565156	4.717447534555
0	865	1181.010794189727	9.162345510811
0	870	1185.037644278311	10.738797864118
0	872	1186.632408583541	3.441556417342
0	878	1201.078067258767	0
0	883	1212.676180391448	0
0	890	1224.114683522064	4.523380205126
0	892	1224.474804110222	3.470089970301
0	898	1229.148479159311	0
0	903	1237.048276317363	0
0	907	1242.361576254323	2.721791432123
0	912	1245.514860203674	2.045312464866
0	918	1248.457193473045	0
0	925	1258.229954551965	5.118897499992
0	927	1260.800285398697	4.183617471813
0	933	1268.810993589836	0
0	938	1274.950140140414	0
0	943	1295.051547897861	0
0	950	1309.340127379781	7.734186798199
0	952	1314.608547588711	9.528241348757
0	963	1323.345786686685	4.415348930944
0	965	1328.422293268565	7.711499679995
0	973	1336.110271428031	13.65368590612
0	978	1338.918306661282	7.224379352568
0	989	1344.873993190633	9.229082783593
0	991	1347.618521938031	10.736816907667
0	993	1347.649561221913	6.957079159437
0	995	1354.834345068509	13.547051209065
0	997	1355.211832534794	10.913052567017
0	1002	1358.526001963212	0.80687101844
0	1007	1367.388504100805	8.660851573899
0	1015	1377.878490473639	1.989011772381
0	1017	1378.612206521038	1.953923579768
0	1023	1383.318215397854	0
0	1028	1401.639014595417	0
0	1032	1410.457954085049	6.344047099686
0	1037	1412.264671837385	1.024855365471
0	1045	1420.257118794359	5.998434913414
0	1047	1427.135782437236	11.796413281975
0	1053	1441.085165921586	0
0	1058	1447.375218498292	0
0	1062	1453.779107381279	0.269825670246
0	1076	1457.924257634368	2.18823567036
0	1078	1458.250808936593	1.995633854312
0	1080	1460.869395045077	3.11913235355
0	1088	1462.514632069978	4.706921338679
0	1090	1464.499725003902	3.415407609289
0	1095	1467.333408171729	5.630812985707
0	1100	1481.477871064774	16.854236876853
0	1102	1488.928498570904	8.086712836734
0	1107	1497.047412399562	1.657473468976
0	1112	1501.910074015032	2.431332817519
0	1118	1507.110745605876	0
0	1122	1509.008272435561	0.929240764554
0	1133	1523.058695644646	6.762168179155
0	1135	1527.709664738503	9.378586377384
0	1146	1534.551081980856	12.200456469556
0	1151	1551.338275979565	19.553192997295
0	1153	1553.479749511262	21.040031762226
0	1155	1555.050785724041	21.701185165738
0	1160	1559.616007674567	23.136106690085
0	1165	1564.587924382912	6.428775936795
0	1170	1567.982618388776	8.030511655016
0	1172	1572.097431150382	5.45974156301
0	1177	1590.901430269841	14.162562857778
0	1185	1595.377707643527	2.12173509915
0	1190	1596.602581548587	3.071478331142
0	1195	1602.874674080634	6.392094485761
0	1197	1614.691393855217	17.760868650628
0	1205	1626.948760754052	4.057388214746
0	1207	1627.971234145138	2.856114689374
0	1213	1632.787526422451	0
0	1220	1639.623274166558	5.45127204001
0	1228	1646.905933328618	7.315319214168
0	1233	1664.24437353772	23.409453988912
0	1238	1666.465602395197	23.986252268551
0	1240	1667.280850886749	19.940315016217
0	1245	1671.614586439987	5.521851936507
0	1256	1676.451238392319	7.415091049626
0	1264	1681.819060556948	8.801516777306
0	1269	1687.16771007045	13.839284908057
0	1271	1688.740267027649	12.522893787514
0	1273	1690.400824298953	12.63322413255
0	1278	1692.816044473364	11.415848209421
0	1280	1702.922798750844	19.597118982065
0	1282	1703.667154224701	12.996984424707
0	1293	1707.272631149293	1.391864537199
0	1295	1713.842452232023	7.627147785229
0	1297	1716.488123940292	9.781323848173
0	1303	1728.261620870618	0
0	1308	1729.152779761324	0
0	1315	1735.537616011791	6.344084132525
0	1317	1742.62702097349	7.792537721459
0	1322	1745.288494297989	0.289347376702
0	1327	1751.898227239175	2.395158359646
0	1333	1764.104871736635	0
0	1337	1768.201011121194	0.368681080892
0	1348	1782.213271716046	11.134333412468
0	1350	1783.359863921286	9.17430983865
0	1355	1788.769452255369	12.160444997441
0	1363	1805.526868109661	18.641711486587
0	1365	1808.962364070576	14.007242009691
0	1379	1830.500443224065	34.691127110256
0	1381	1832.360196581839	12.101631563974
0	1398	1851.158812063856	26.46697219177
0	1400	1854.140675230869	26.580276642864
0	1402	1854.584488140293	25.589512830048
0	1413	1863.708308572806	29.172478532305
0	1415	1863.866962323447	27.595281977495
0	1420	1872.821746621895	33.128553951097
0	1422	1873.597844161261	25.900398265897
0	1433	1888.076123549115	39.81896378532
0	1441	1893.212413647973	38.324909880845
0	1446	1899.361824917841	40.513114438509
0	1454	1910.030557520279	50.52038356193
0	1456	1911.594976005133	44.485981045628
0	1467	1916.958280498332	38.874684580364
0	1475	1919.536676316405	37.660918060404
0	1477	1924.147178498153	38.899728277996
0	1485	1926.610985309874	38.334857507888
0	1499	1932.478187904192	40.964552090041
0	1501	1935.939372860306	40.001868328129
0	1506	1943.692950977183	42.999258970721
0	1511	1947.339853084804	39.039725627865
0	1513	1952.143722919585	36.988784253766
0	1518	1956.662808730932	40.544487032297
0	1520	1961.97309459254	45.098162851919
0	1522	1962.442219324559	44.983133059045
0	1527	1963.299366417142	43.909673674177
0	1532	1968.371451262767	42.122796780514
0	1537	1973.520594742975	47.029357296317
0	1542	1974.194166795955	45.323375401352
0	1550	1976.925047502579	47.226788258777
0	1552	1977.398155051248	47.483519497651
0	1557	1982.834876335815	51.555502432803
0	1559	1983.546867106101	44.24166123591
0	1561	1985.524853529867	38.9080284789
0	1563	1986.824786688014	30.204672036064
0	1568	1994.812557619792	32.307345882341
0	1570	1998.409248569367	34.490025278334
0	1578	2003.780712064405	34.313215788824
0	1580	2004.264207390982	30.460710528533
0	1582	2022.097787128469	47.786039950084
0	1584	2028.217917038362	51.986305461234
0	1586	2031.500873979701	53.457278709035
0	1594	2037.480005412081	49.880344759274
0	1596	2043.304799665189	41.11364306237
0	1598	2043.926469396617	40.916478817501
0	1609	2050.332472646259	16.049785315804
0	1611	2052.251512950519	15.138530732255
0	1613	2053.194886219057	9.11429411772
0	1615	2053.550690564776	3.923365505102
0	1620	2058.372084655957	8.504373556872
0	1622	2068.756136992538	11.957894372767
1	5	7.622808036624	1.16095202755
1	10	14.096641286347	1.537456165199
1	18	27.64450382175	4.062324476899
1	20	40.972800375539	15.899737309221
1	25	46.306753749052	0.442983022594
1	33	52.654846093944	1.102418485195
1	38	57.252823718675	5.015775016448
1	40	58.355057526147	2.390328651511
1	45	65.777793692769	6.299281353638
1	50	75.776129337063	9.266499782346
1	55	80.410776673432	0.433158256239
1	63	85.786012122788	4.24556157508
1	65	89.421907272186	7.535546747544
1	70	96.883830676192	1.072110599423
1	75	111.170540814499	10.464360201348
1	83	126.249114264855	8.913362216602
1	85	127.753227687773	4.540460995128
1	90	133.279744327377	0.592946484264
1	107	149.650171173702	13.855352001974
1	112	154.079373983331	13.71011283343
1	114	156.51740153117	13.658934564748
1	116	158.193239941296	12.880142964128
1	121	164.404034404508	18.440516508341
1	123	166.153911113126	15.385327380498
1	125	166.955829515584	3.506727297263
1	130	189.912096642721	3.271565770844
1	144	205.053113882324	8.646476994048
1	146	207.356118857431	10.745016076838
1	148	209.049426631851	11.769648016873
1	150	215.244725578743	11.002570021761
1	155	236.812002010981	7.853952364217
1	169	253.608706935969	14.536795949453
1	180	262.881713304231	17.961115718884
1	182	267.378135622966	18.864299573947
1	184	273.480226192343	23.302150901094
1	189	283.730707708269	24.864657713633
1	191	283.92810485898	23.895851387894
1	199	286.747263829353	24.518682170157
1	207	295.874719773051	16.290861947574
1	209	301.579304700278	15.660211072805
1	211	307.536832177054	21.21002845271
1	213	309.009245798039	20.917660755809
1	221	319.552359400816	24.933889919384
1	223	321.271523530659	11.59176725897
1	228	327.644329941913	11.124765559447
1	230	328.551479493875	5.617809849506
1	235	334.112159208602	2.039803936848
1	240	335.386037339478	0.642679151152
1	245	336.750442405526	0.799656337007
1	253	355.632475045398	6.838454573262
1	255	358.011955649212	5.087498185166
1	263	373.702907724937	15.367072278617
1	277	386.847960081152	14.094187124014
1	279	388.896858516433	12.886984806207
1	290	398.926542747407	18.598669398362
1	295	400.034719498548	18.958029790298
1	297	403.905337710215	17.564893565458
1	305	423.648417856119	34.231853624562
1	313	425.588435026361	33.352738508345
1	315	426.73833928654	31.839354614892
1	323	427.963555512802	28.925130251125
1	328	434.76834510099	22.565787010931
1	336	437.500232043065	22.416556421085
1	338	439.477351146103	14.979677893307
1	340	439.739540008816	14.302433420374
1	345	445.520654053457	18.566956802051
1	347	447.218946876112	19.84569075341
1	352	460.060084344612	28.65978948861
1	354	476.660255335019	39.381525624411
1	356	478.522430958375	41.068174922746
1	358	480.492937232258	37.640591527912
1	363	490.37959375674	33.747300659413
1	365	492.582666479143	10.843722388669
1	370	510.637706667064	4.499988913963
1	381	516.477222055434	4.014683909952
1	389	522.758051282888	8.946895117105
1	391	522.930667285445	8.310842974826
1	408	542.092525910656	25.468031342722
1	416	550.456185680122	29.469770290032
1	424	558.298948730889	35.356511472894
1	426	559.958817394086	34.588154429178
1	431	566.90564082746	35.793906451
1	433	574.387411421883	38.251362699472
1	435	583.338312447499	46.982641787809
1	437	587.124370003264	42.162669190972
1	442	596.520652872827	51.291790198624
1	447	600.613620243574	46.941843160564
1	449	639.113196188688	82.275930805956
1	451	643.692808558669	82.469166029604
1	453	643.731635387027	51.635821900957
1	455	646.591458539178	49.78952292757
1	460	655.463920099463	4.602110036987
1	468	661.524316599937	2.262550236808
1	476	667.959525487707	6.512921898811
1	478	668.759858192419	6.967495142899
1	483	671.670566487316	4.715241658821
1	485	672.030156915693	1.868433206386
1	493	703.836518937548	18.356574352914
1	507	717.14192924877	15.014577478729
1	509	726.359518433101	21.336866379121
1	511	728.170869754847	22.688196941991
1	528	740.767120509423	32.589370177217
1	530	743.083547963412	29.458553390095
1	535	747.240488733414	16.931114928223
1	537	750.944637365849	18.931220869197
1	542	752.201500203724	15.102957929907
1	544	752.798038537799	14.940623594064
1	546	758.2493260058	17.537522580844
1	548	760.444889498569	13.442225132695
1	550	761.880784190506	10.772417184906
1	558	773.614575633872	6.377593842802
1	560	774.621065763297	4.832685970171
1	568	783.576230460544	2.989048211872
1	573	788.290038729833	4.953074109303
1	575	790.535950080878	6.350835892905
1	583	796.213863387842	4.304832806008
1	585	801.907097139024	7.728915484788
1	590	822.000184578473	5.062469973202
1	595	837.535511072507	1.618799806846
1	603	849.203588909836	6.448962257341
1	635	886.09792296895	43.211045218221
1	640	895.32388067725	42.68013756755
1	648	902.31408532835	47.682649412374
1	653	911.275122366325	56.056749204788
1	658	915.631892454853	48.086227856506
1	666	919.428461522045	48.397029324501
1	671	932.857451674497	60.517969442181
1	679	951.545629058976	78.533473130603
1	684	964.411666167451	83.771332659487
1	686	965.050541365584	81.828701504839
1	688	971.519385386642	87.308575107081
1	690	977.786155732979	90.526775187853
1	692	983.044024305397	87.620810489472
1	700	989.309238905872	93.606572435712
1	702	990.374195156246	79.447504529659
1	704	991.541294772128	76.29217231329
1	709	994.199107590168	76.390664409793
1	714	1003.789093439578	85.970141269879
1	716	1007.860759436915	80.680140898831
1	724	1016.129784442195	82.970488172028
1	729	1022.41971174083	71.681196578323
1	734	1025.27891013622	67.058863394347
1	736	1027.512423535606	39.419563268017
1	738	1032.74201780344	43.864895329982
1	740	1032.906935263698	38.883922479992
1	742	1033.367933128242	39.046231390511
1	750	1046.466809566682	37.578023683718
1	758	1057.21052874487	47.514218752299
1	760	1058.776938237584	40.96270066255
1	762	1064.958068692615	39.793377004698
1	767	1072.99467443665	30.733433134907
1	775	1080.036077900192	33.725885132708
1	777	1083.848839370328	36.501022855493
1	782	1088.647160107165	31.531720478175
1	784	1090.939503271539	23.855972415536
1	786	1094.361568139242	21.12293173754
1	791	1102.499120432882	26.690304395538
1	796	1103.824629505528	19.449667349578
1	798	1103.956325832051	2.136468650178
1	806	1109.567046341409	6.996455740024
1	808	1116.230003269401	9.978193367391
1	810	1120.652589919841	11.97833122423
1	815	1121.134330855777	0.226170304594
1	820	1138.557302161397	5.093718516327
1	825	1153.972498005604	4.482411303077
1	842	1164.447021915507	6.048256562588
1	844	1164.919768713719	4.072527860614
1	846	1165.472157055672	4.417402316144
1	854	1168.056109912629	4.482783383863
1	859	1172.145866528094	8.094591365239
1	861	1172.58728565156	6.948495986831
1	866	1181.010794189727	13.140956072722
1	871	1185.037644278311	13.189195599395
1	873	1186.632408583541	12.333562169348
1	875	1187.638023708745	4.447171542546
1	880	1210.406762859118	9.328695600351
1	891	1224.114683522064	11.438503130616
1	893	1224.474804110222	4.883500793284
1	895	1229.095134547461	8.09042040754
1	900	1234.920972879453	5.772493720142
1	908	1242.361576254323	5.31329993696
1	913	1245.514860203674	5.875075381474
1	915	1248.182724833579	4.713177094771
1	926	1258.229954551965	9.77276107892
1	928	1260.800285398697	7.689228346724
1	930	1261.890768069549	5.274100142665
1	935	1272.770974750368	3.959981160532
1	940	1276.128098706456	1.177958566042
1	951	1309.340127379781	14.28857948192
1	953	1314.608547588711	13.002607007129
1	964	1323.345786686685	18.265480446731
1	966	1328.422293268565	9.491855512824
1	974	1336.110271428031	15.399477839461
1	979	1338.918306661282	16.461721139371
1	990	1344.873993190633	13.180065881919
1	992	1347.618521938031	11.973611530991
1	994	1347.649561221913	10.767856191549
1	996	1354.834345068509	14.141863006033
1	998	1355.211832534794	13.92453867535
1	1003	1358.526001963212	14.227221995435
1	1008	1367.388504100805	9.669373156033
1	1016	1377.878490473639	19.150837946733
1	1018	1378.612206521038	2.72272781978
1	1020	1381.819173790705	5.160890849435
1	1025	1385.427304387512	2.109088989658
1	1033	1410.457954085049	8.818939489632
1	1038	1412.264671837385	8.150764852022
1	1046	1420.257118794359	9.017302322445
1	1048	1427.135782437236	12.877098556291
1	1050	1437.31989606861	21.980526913349
1	1055	1444.829524524247	3.744358602661
1	1063	1453.779107381279	6.403888882987
1	1077	1457.924257634368	4.414975923335
1	1079	1458.250808936593	2.514786972585
1	1081	1460.869395045077	4.614219962796
1	1089	1462.514632069978	4.764369378451
1	1091	1464.499725003902	6.692014272603
1	1096	1467.333408171729	6.249090777116
1	1101	1481.477871064774	19.775275878752
1	1103	1488.928498570904	24.304864382983
1	1108	1497.047412399562	16.205626665392
1	1113	1501.910074015032	6.520135084446
1	1115	1502.466613472759	2.987872275246
1	1123	1509.008272435561	1.897526829685
1	1134	1523.058695644646	14.979663973639
1	1136	1527.709664738503	11.413137273012
1	1147	1534.551081980856	16.220003619737
1	1152	1551.338275979565	28.987650468265
1	1154	1553.479749511262	21.694666528992
1	1156	1555.050785724041	22.611067975005
1	1161	1559.616007674567	26.266407116264
1	1166	1564.587924382912	28.10802339843
1	1171	1567.982618388776	9.823469942659
1	1173	1572.097431150382	12.145324416622
1	1178	1590.901430269841	24.263740682469
1	1186	1595.377707643527	18.638840231464
1	1191	1596.602581548587	3.34660900421
1	1196	1602.874674080634	9.343570863189
1	1198	1614.691393855217	18.208814260344
1	1206	1626.948760754052	30.018235549463
1	1208	1627.971234145138	5.079861605832
1	1210	1630.738348539527	5.623229083763
1	1221	1639.623274166558	6.835747744107
1	1229	1646.905933328618	12.73393120207
1	1234	1664.24437353772	24.65375942327
1	1239	1666.465602395197	25.630682846389
1	1241	1667.280850886749	24.801500760103
1	1246	1671.614586439987	24.274050569455
1	1257	1676.451238392319	10.358503888839
1	1265	1681.819060556948	12.782913214255
1	1270	1687.16771007045	14.150166290808
1	1272	1688.740267027649	15.411841865256
1	1274	1690.400824298953	14.183451058818
1	1279	1692.816044473364	15.048444306961
1	1281	1702.922798750844	21.522602486901
1	1283	1703.667154224701	20.341474455922
1	1294	1707.272631149293	16.602461349299
1	1296	1713.842452232023	7.961685619929
1	1298	1716.488123940292	10.272819493498
1	1300	1719.805939893028	13.099139800909
1	1305	1728.93077410156	0.669153230942
1	1316	1735.537616011791	6.384836250467
1	1318	1742.62702097349	13.433489094224
1	1323	1745.288494297989	10.454011045958
1	1328	1751.898227239175	6.899080317888
1	1330	1755.524777353162	6.021708473633
1	1338	1768.201011121194	4.096139384559
1	1349	1782.213271716046	14.380941675744
1	1351	1783.359863921286	12.280925617708
1	1356	1788.769452255369	14.583898172733
1	1364	1805.526868109661	28.917860851733
1	1366	1808.962364070576	22.077207447502
1	1380	1830.500443224065	35.54532116318
1	1382	1832.360196581839	36.55088046803
1	1399	1851.158812063856	30.900247045991
1	1401	1854.140675230869	29.448835358783
1	1403	1854.584488140293	27.024089552288
1	1414	1863.708308572806	34.713333262561
1	1416	1863.866962323447	29.331132282946
1	1421	1872.821746621895	36.550066275943
1	1423	1873.597844161261	33.904651490463
1	1434	1888.076123549115	40.378677653751
1	1442	1893.212413647973	44.955253884178
1	1447	1899.361824917841	44.474321150713
1	1455	1910.030557520279	51.181847040947
1	1457	1911.594976005133	52.084802046784
1	1468	1916.958280498332	49.849285538827
1	1476	1919.536676316405	41.453080398437
1	1478	1924.147178498153	42.271420242152
1	1486	1926.610985309874	41.363535089717
1	1500	1932.478187904192	44.202060102206
1	1502	1935.939372860306	44.425737046155
1	1507	1943.692950977183	47.755446445006
1	1512	1947.339853084804	46.646161078342
1	1514	1952.143722919585	43.843595462646
1	1519	1956.662808730932	41.507870065113
1	1521	1961.97309459254	45.854772893905
1	1523	1962.442219324559	45.567287583938
1	1528	1963.299366417142	45.840280151628
1	1533	1968.371451262767	48.981758519802
1	1538	1973.520594742975	47.271940260722
1	1543	1974.194166795955	47.702929349297
1	1551	1976.925047502579	48.054256107976
1	1553	1977.398155051248	47.699895807446
1	1558	1982.834876335815	52.920240782218
1	1560	1983.546867106101	52.267493203089
1	1562	1985.524853529867	46.219647659676
1	1564	1986.824786688014	40.207961637047
1	1569	1994.812557619792	38.192442967842
1	1571	1998.409248569367	35.904036831916
1	1579	2003.780712064405	39.861488773372
1	1581	2004.264207390982	34.796711115401
1	1583	2022.097787128469	48.29429026602
1	1585	2028.217917038362	53.906169859977
1	1587	2031.500873979701	55.269262402573
1	1595	2037.480005412081	59.436410141415
1	1597	2043.304799665189	55.705139012382
1	1599	2043.926469396617	41.735312793798
1	1610	2050.332472646259	47.322482067143
1	1612	2052.251512950519	17.968825620064
1	1614	2053.194886219057	16.081904000793
1	1616	2053.550690564776	9.470098463439
1	1621	2058.372084655957	8.744759596283
1	1623	2068.756136992538	18.888425893453
1	1625	2073.429280761649	16.631038141878
