version 2
run Testbench_1-1368-20170516-19:22:44-58884
attr configname Testbench_1
attr datetime 20170516-19:22:44
attr experiment Testbench_1
attr inifile omnetpp.ini
attr iterationvars $0=350
attr iterationvars2 "$0=350, $repetition=68"
attr measurement $0=350
attr network Toll_road
attr processid 58884
attr repetition 68
attr replication #68
attr resultdir results
attr runnumber 1368
attr seedset 1368
param **.numBooths 3
param **.queue[*].serviceTime exponential(5.11s)
param **.source.interArrivalTime exponential(5.854s)
param **.source.numJobs 1000

vector 0  Toll_road.queue[0]  jobsProcessed:vector  ETV
attr interpolationmode  none
attr source  queueingTime
attr title  "jobs processed, vector"
vector 1  Toll_road.sink  lifeTime:vector  ETV
attr interpolationmode  none
attr title  "lifetime of arrived jobs, vector"
attr unit  s
0	3	3.428576071766	0
0	8	19.144783839699	0
0	13	20.440777742351	0
0	17	24.840670411438	1.681719290619
0	25	39.144567585546	5.458135296699
0	30	40.71268604156	6.8392943273
0	32	43.987183686744	4.724573859538
0	38	57.045819806953	0
0	43	58.239281236031	0
0	50	65.532681879946	2.752333369454
0	55	70.801979695858	5.842855102765
0	57	71.850084412009	5.887020384526
0	63	100.693414185048	0
0	67	100.815837504982	0.062553399818
0	72	102.278325928207	0.911790584677
0	77	109.233515437986	1.77022826623
0	83	109.68945637204	0
0	90	118.680704584546	6.370376864628
0	95	122.708163021138	8.100396948969
0	100	128.159970480979	8.944967292292
0	123	152.465541444511	29.625328902042
0	128	171.615552486842	34.592685553919
0	130	171.926842243764	30.885288645334
0	135	176.472997458259	33.335500020526
0	137	181.354667425602	37.609228083281
0	139	184.072025094248	35.125753036825
0	141	184.494183396152	35.13094892948
0	146	189.733119313765	40.025633652838
0	151	196.530674733973	39.182215841778
0	153	196.783342942532	22.759970555868
0	161	207.551430162677	22.088109384907
0	163	219.863932357014	28.466363278402
0	168	220.515234187645	18.063802323046
0	170	222.172550719632	15.772006004773
0	172	222.240018171831	2.236375946175
0	178	229.599985372873	0
0	182	233.818084048276	1.647244707648
0	188	241.071176026841	0
0	193	248.053230336422	0
0	203	255.63749637874	7.271290548368
0	211	262.299103334052	8.511722872724
0	213	262.880698005597	7.601555746701
0	218	274.585433964593	17.376012362497
0	220	274.650646063768	13.325039180677
0	234	279.041173675527	15.961067351144
0	236	283.954932885151	7.246503486609
0	250	289.487323231845	11.800296065413
0	252	291.139364840773	13.377584269891
0	254	292.236031529694	13.313663726491
0	256	293.003220533101	8.379110690634
0	258	295.851295460011	11.21137995643
0	266	297.723340136601	11.953391703974
0	268	298.483735596427	9.822382117337
0	270	300.365591075291	3.916075221807
0	272	300.970860945509	4.013366546939
0	277	306.082478662582	0.879317109381
0	283	316.394597394964	0
0	288	317.891164106931	0
0	293	328.929402405091	0
0	300	335.719881324959	3.658566209624
0	305	345.398205465488	10.169916907131
0	307	345.694582427076	0.746929005584
0	313	354.461324265807	0
0	318	359.061970480757	0
0	328	377.370223305541	16.624410549597
0	330	378.345002598266	11.051945311977
0	332	385.955503835638	10.140240010823
0	337	386.959713764495	0.435352672912
0	343	396.108623439379	0
0	359	420.253369299724	20.602033277733
0	364	430.682825470147	30.803980733642
0	369	435.820763475307	34.585012299851
0	371	437.845473666141	31.236264237817
0	373	438.485615790056	26.305097767773
0	393	458.742715437147	31.896201215107
0	398	466.213190791884	30.733715836854
0	400	468.888030114271	27.338240219339
0	417	481.637821693146	35.876799148425
0	419	485.26246521873	39.011929480493
0	424	491.13736422034	42.187714461622
0	426	493.011300122338	42.809027352253
0	428	497.839681943815	42.106665621276
0	430	499.56081189243	37.648536052256
0	441	506.981648592131	37.659525138867
0	446	509.815208349453	38.217653359408
0	451	516.713840798769	44.426133530564
0	453	518.909134618395	39.455974406388
0	458	519.874529254479	39.545725276024
0	460	523.943326356434	38.378139106717
0	465	527.045415714672	26.56557584577
0	467	531.76581413213	29.35376199247
0	472	535.379194800264	30.469545639759
0	474	536.642693716407	29.134152567859
0	491	542.435043293139	25.8002835692
0	496	549.849629617444	30.248305412295
0	504	555.110310465208	30.369426681745
0	512	566.575346980803	33.884635991721
0	517	580.51628787723	42.669253074183
0	519	583.473013207419	44.431066130344
0	524	588.37264243946	48.771277087246
0	526	588.695009530089	48.283576950311
0	528	590.071138957809	49.306669730515
0	533	593.02335732875	44.2296197116
0	541	600.733171125602	49.811291295653
0	543	602.91949534324	48.600789641554
0	554	609.151093712836	47.503017747892
0	562	616.958573182733	55.036979412094
0	564	617.434301517343	48.634099160355
0	569	619.496026216155	32.666980914676
0	577	628.800566142085	37.583262866234
0	579	630.875312878572	34.693659973063
0	584	642.222584028738	41.752941863217
0	589	647.130082058759	43.216560546763
0	591	649.699447009302	45.147689271333
0	593	654.836251764549	46.672788970689
0	598	659.633186926901	50.098939559849
0	600	662.992984240152	52.86893878894
0	602	663.606728559282	45.63930314542
0	604	667.366873299319	47.539702711264
0	606	668.628690521176	45.124877145502
0	608	670.34976246153	39.215966983211
0	610	679.048205500253	35.923672751774
0	612	682.912798275612	23.722619807422
0	617	691.846940780034	5.162926089111
0	622	694.297930537501	1.430501247873
0	628	697.10177178019	0
0	633	702.145640079802	0
0	638	710.27770086042	0
0	643	723.857177834787	0
0	648	730.97052116874	0
0	653	754.282430551923	0
0	660	757.563386221895	3.106612691331
0	662	759.24183488868	3.912924457626
0	667	762.853535986938	3.310336428111
0	673	764.222825764955	0
0	678	774.177972193708	0
0	682	776.199397659281	1.061708014239
0	688	789.429929989748	0
0	693	790.936637155507	0
0	698	800.347253346459	0
0	708	811.011999493379	7.092993949344
0	710	814.383780769021	5.492144228656
0	712	816.836253541453	6.323998410596
0	718	820.138705099784	0
0	728	853.576570954969	28.816639040717
0	730	855.477715621841	30.423132827079
0	735	858.07695053241	5.230354225601
0	746	863.353323526236	5.900000432353
0	748	868.562378882387	8.798118980378
0	753	881.205453550632	20.892884288903
0	755	882.128093868276	20.329138016893
0	760	891.854120682514	15.669121563384
0	768	902.484466680829	16.044055131529
0	770	905.750918446532	11.892370066399
0	775	933.284881146471	36.051648608725
0	777	935.094682753086	28.748961007592
0	791	941.569375481983	6.305404645255
0	793	944.458983311497	5.538507511369
0	795	949.75362312507	10.014254067305
0	800	957.371513765291	17.415513234681
0	802	963.03766713565	7.835302280311
0	808	972.027277830363	0
0	813	973.785518892573	0
0	820	977.626964933721	3.720948683688
0	822	979.006390899182	4.781580202338
0	828	987.959855249634	0
0	832	1002.063844576945	0.681972909371
0	838	1008.675779428475	0
0	843	1009.828354187062	0
0	850	1017.809232766018	5.140941124761
0	852	1018.63530607656	3.472879599851
0	858	1020.550031617772	0
0	868	1038.04283562279	17.017531153799
0	873	1041.677806433538	12.550674346058
0	875	1043.271142784278	10.379432650943
0	883	1048.388361561416	7.933597236655
0	885	1049.694399713564	1.98983278055
0	887	1050.524071909301	2.747781619013
0	892	1052.872544420112	0.182936832138
0	898	1068.19340402866	0
0	902	1073.133601990075	1.705236073933
0	907	1074.758546965725	1.033105878615
0	912	1089.033240947376	3.558653390742
0	926	1100.587006203167	10.981466318403
0	928	1102.870119232991	9.376175467941
0	933	1107.114466077716	13.498259694866
0	944	1116.38942632629	20.730698312537
0	952	1124.639405073373	19.418958626943
0	957	1129.594943637867	20.880193187026
0	962	1141.018424573726	28.860833125648
0	970	1145.174363166445	32.308277591539
0	972	1149.964491013826	30.575272422387
0	977	1153.714023208088	31.024395395754
0	991	1163.451053579802	38.240337108339
0	993	1164.052951649138	32.626039056015
0	998	1171.614829602859	30.303587673953
0	1000	1177.281728219986	35.003089850427
0	1002	1182.530004936333	30.501138181685
0	1004	1182.675615274776	26.190413110049
0	1006	1186.854359490002	26.609372462752
0	1008	1187.580540271939	26.322152123602
0	1010	1190.130140758164	27.815035856759
0	1012	1193.496084565807	24.095482180183
0	1018	1194.771422272119	0
0	1031	1203.760598536089	7.504397717135
0	1036	1204.477750364455	5.892114587002
0	1038	1206.781190352796	7.483772029393
0	1040	1224.851128302536	22.671862838826
0	1042	1228.230188058453	24.401642419958
0	1048	1231.32248804775	0
0	1058	1251.341436078482	15.362726822546
0	1060	1251.62654477238	12.820128839847
0	1062	1253.550307485152	13.543669259991
0	1076	1262.838624055883	7.589596585441
0	1081	1263.559300865609	6.816443316689
0	1083	1266.421094945333	8.2406596888
0	1085	1268.164015283268	6.972549332092
0	1087	1269.313168285832	6.341990508642
0	1093	1276.001217301507	0
0	1098	1282.845141459789	0
0	1105	1296.712785332084	10.719295736182
0	1107	1297.862710242411	9.557356549987
0	1113	1305.574454515019	0
0	1120	1310.501110423633	3.372087105621
0	1128	1315.517607916084	7.795484202926
0	1133	1320.123148269741	8.872484864886
0	1138	1324.746073611342	11.403024520527
0	1146	1326.422915146406	10.447823108106
0	1148	1327.014590284938	3.557003711509
0	1150	1329.194516911447	3.981576888572
0	1152	1335.570771260715	9.152431436897
0	1158	1350.109840521036	0
0	1163	1352.001512783492	0
0	1176	1367.393803346959	14.238814298342
0	1178	1368.327101577858	15.084160726897
0	1183	1382.565627679729	27.893525133122
0	1188	1389.010864333728	24.486370469732
0	1190	1389.431450729412	15.546728969248
0	1195	1396.135286932927	11.910351954483
0	1200	1402.871998153706	11.374014218962
0	1202	1403.174435301234	4.711370139197
0	1207	1405.656398505871	1.618580911232
0	1212	1411.186594737052	4.044180475096
0	1223	1424.543075801848	13.13174412607
0	1225	1430.236374929113	11.142155748038
0	1227	1432.292488905183	9.264408335839
0	1253	1457.681329742507	24.622956520254
0	1255	1458.684561225002	25.587758884948
0	1257	1461.412569842049	27.720137675938
0	1259	1461.630654798143	27.164754133152
0	1267	1469.384337018459	31.540358831366
0	1269	1474.299887211013	32.089509159797
0	1271	1478.559591732148	32.387836859412
0	1285	1495.69197386358	44.792914670494
0	1287	1496.01329797799	31.914254948973
0	1295	1508.436705995542	42.543946104671
0	1297	1510.825009870641	27.206341383191
0	1299	1518.911817813484	34.01583603259
0	1304	1521.281244058266	31.98416467573
0	1306	1525.890641208957	34.190653813833
0	1311	1535.77159484372	38.708712235062
0	1313	1536.484768073457	28.370182662848
0	1318	1540.495741070697	20.623683563687
0	1320	1544.524622200062	13.10436643938
0	1325	1557.514640381422	20.753613723147
0	1333	1566.192173863141	16.224633208914
0	1335	1569.476271293152	9.995718993146
0	1340	1586.418661468018	21.793112010671
0	1345	1588.794296183418	8.643893498396
0	1350	1590.537452827518	2.771605101903
0	1358	1600.281257921329	10.155979248776
0	1360	1602.999702957745	6.512315307768
0	1362	1603.83501276068	4.398953103006
0	1368	1613.644325205743	0
0	1378	1639.335639852358	17.422615681817
0	1383	1640.400201988316	12.697837954737
0	1385	1645.324590178117	14.736674604397
0	1387	1645.691308751273	5.647357715516
0	1392	1647.328926458487	0.208375577096
0	1397	1653.971761477303	6.48304496486
0	1403	1655.379021187733	0
0	1408	1662.428072192214	0
0	1413	1678.593602099576	0
0	1423	1687.31503497487	7.699190706651
0	1425	1688.840297247734	8.562976198012
0	1427	1689.320628077555	6.365961805928
0	1435	1692.597447664023	1.791210243194
0	1443	1702.972972833478	11.108588613151
0	1448	1704.389441995808	11.56207243823
0	1453	1707.563057506717	13.624488815751
0	1464	1713.202240592529	9.52660484374
0	1469	1732.818324736839	27.236866836491
0	1471	1744.581500226119	36.548240811976
0	1479	1746.95331241482	34.558439783379
0	1481	1747.611639357714	34.902208791908
0	1483	1751.707736457513	26.066014841004
0	1485	1752.134384017191	7.50875277797
0	1493	1762.501266209619	17.470488972485
0	1495	1762.787578566847	9.380031952981
0	1500	1765.741785198439	11.112275709147
0	1502	1772.964076094775	9.044549115652
0	1508	1776.000934378241	0
0	1513	1786.667360987513	0
0	1517	1795.979424354432	0.262265688781
0	1523	1797.073981814645	0
0	1528	1806.705093837785	0
0	1533	1814.786203976433	0
0	1537	1815.861257407125	0.36539515155
0	1543	1825.229171003012	0
0	1548	1837.910206011704	0
0	1552	1839.224591108735	1.240465943964
0	1557	1847.880284081196	1.174312014485
0	1562	1850.982885593959	2.921909182772
0	1570	1861.074692611245	9.565765574588
0	1575	1863.154486342663	10.859296582169
0	1580	1865.943322526315	3.299602665175
0	1582	1870.141264303683	6.824218902627
0	1588	1870.259734948444	0
0	1592	1871.876472017073	1.607885820039
0	1597	1879.739173678593	6.720524583329
0	1603	1883.948006144394	0
0	1610	1890.450847552327	5.855579807174
0	1615	1892.008700855243	3.552622150687
0	1623	1898.760628797774	8.237709155969
0	1625	1901.558152653692	6.626364285253
0	1627	1904.662077006747	8.349643694697
0	1633	1905.915668749379	0
0	1638	1907.096260162445	0
0	1643	1915.943210619046	0
0	1648	1927.275039690518	0
0	1653	1935.8066444802	0
0	1663	1950.544459169047	11.630385056064
0	1665	1952.32817654733	13.059139328117
0	1673	1955.313178315109	10.564542501352
0	1678	1959.941319030011	7.108007169182
0	1680	1961.561978861652	7.205803055915
0	1682	1961.820797358582	2.601448378278
0	1688	1973.421063744207	0
0	1693	1980.533830206037	0
0	1698	2003.388620730009	0
0	1711	2019.888864897089	15.084163627658
0	1719	2028.480980096633	17.680572906719
0	1721	2028.726741665694	16.525393196458
0	1729	2032.586220811506	17.43946028392
0	1734	2034.138471377674	13.514621494991
0	1736	2035.061394340006	8.034475071479
0	1738	2037.805097180621	6.463182164178
0	1740	2041.084836352411	8.765838417513
0	1742	2048.068806778552	15.101303397001
0	1748	2056.232452977112	0
1	5	3.527419501058	0.098843429292
1	10	19.71091157542	0.566127735721
1	18	24.840670411438	4.399892669087
1	26	39.144567585546	15.985616464727
1	31	40.71268604156	7.026253752713
1	33	43.987183686744	10.113791972484
1	35	48.330789030209	9.068179203003
1	40	57.607372588957	0.561552782004
1	51	65.532681879946	7.293400643915
1	56	70.801979695858	8.021631185366
1	58	71.850084412009	6.890959818916
1	60	77.880573601893	11.91750957441
1	68	100.815837504982	0.122423319934
1	73	102.278325928207	1.525041823043
1	78	109.233515437986	7.866980094456
1	80	109.433585091371	1.970297919615
1	91	118.680704584546	8.991248212506
1	96	122.708163021138	10.39783530122
1	101	128.159970480979	13.55220440881
1	124	152.465541444511	33.250538255824
1	129	171.615552486842	48.775339944373
1	131	171.926842243764	34.903975310841
1	136	176.472997458259	35.431443859829
1	138	181.354667425602	38.217169987869
1	140	184.072025094248	40.326585751927
1	142	184.494183396152	35.547911338729
1	147	189.733119313765	40.369884847093
1	152	196.530674733973	46.823189073046
1	154	196.783342942532	39.434884050337
1	162	207.551430162677	33.528057776013
1	164	219.863932357014	34.400611579244
1	169	220.515234187645	29.117665109033
1	171	222.172550719632	19.721118855033
1	173	222.240018171831	15.839473456972
1	175	226.126201023981	6.122558798325
1	183	233.818084048276	4.218098675403
1	185	238.028438609311	5.857599268683
1	190	243.300723571843	2.229547545002
1	204	255.63749637874	7.584266042318
1	212	262.299103334052	13.93289750368
1	214	262.880698005597	9.093317544269
1	219	274.585433964593	19.306291705697
1	221	274.650646063768	17.441224461672
1	235	279.041173675527	17.715566792436
1	237	283.954932885151	20.874826560768
1	251	289.487323231845	12.778893833303
1	253	291.139364840773	13.452337674341
1	255	292.236031529694	14.474250958812
1	257	293.003220533101	14.080852729898
1	259	295.851295460011	11.227185617544
1	267	297.723340136601	13.08342463302
1	269	298.483735596427	12.7137871638
1	271	300.365591075291	11.704237596201
1	273	300.970860945509	4.521345092025
1	278	306.082478662582	9.124984264012
1	280	308.907208949904	3.704047396703
1	285	317.063027432048	0.668430037084
1	290	320.04710373246	2.155939625529
1	301	335.719881324959	6.790478919868
1	306	345.398205465488	13.336890350153
1	308	345.694582427076	10.466293868719
1	310	353.541414854756	8.593761433264
1	315	358.454428572633	3.993104306826
1	329	377.370223305541	18.308252824784
1	331	378.345002598266	17.599189842322
1	333	385.955503835638	18.662446549349
1	338	386.959713764495	11.14444993968
1	340	389.24898464567	2.724623554087
1	360	420.253369299724	24.144745860345
1	365	430.682825470147	31.031489448156
1	370	435.820763475307	35.941918738802
1	372	437.845473666141	36.609722490685
1	374	438.485615790056	31.876406361732
1	394	458.742715437147	46.562197414864
1	399	466.213190791884	39.366676569844
1	401	468.888030114271	33.408555159241
1	418	481.637821693146	40.088031798214
1	420	485.26246521873	39.501442674009
1	425	491.13736422034	44.886828482103
1	427	493.011300122338	44.06165036362
1	429	497.839681943815	47.63740917373
1	431	499.56081189243	43.827795569891
1	442	506.981648592131	45.069372751957
1	447	509.815208349453	40.493084896189
1	452	516.713840798769	45.116285808724
1	454	518.909134618395	46.62142735019
1	459	519.874529254479	40.421369042472
1	461	523.943326356434	43.614522377979
1	466	527.045415714672	41.480228464955
1	468	531.76581413213	31.285974263228
1	473	535.379194800264	32.967142660604
1	475	536.642693716407	31.733044555902
1	492	542.435043293139	34.926502144591
1	497	549.849629617444	33.214869893505
1	505	555.110310465208	35.508986260059
1	513	566.575346980803	41.83446319734
1	518	580.51628787723	47.825576888148
1	520	583.473013207419	45.625978404372
1	525	588.37264243946	49.330695362385
1	527	588.695009530089	49.093644177875
1	529	590.071138957809	49.659706378031
1	534	593.02335732875	52.258888101456
1	542	600.733171125602	51.939433508452
1	544	602.91949534324	51.997615513291
1	555	609.151093712836	54.83238801115
1	563	616.958573182733	55.310497217789
1	565	617.434301517343	55.512707746704
1	570	619.496026216155	50.695823859167
1	578	628.800566142085	41.971520840606
1	580	630.875312878572	39.658009602721
1	585	642.222584028738	46.040931123229
1	590	647.130082058759	46.660439893238
1	592	649.699447009302	45.785925497306
1	594	654.836251764549	50.28449402658
1	599	659.633186926901	51.469724133041
1	601	662.992984240152	53.4587368731
1	603	663.606728559282	53.48268310807
1	605	667.366873299319	49.399447885457
1	607	668.628690521176	48.801519933121
1	609	670.34976246153	46.845949085856
1	611	679.048205500253	47.914410021934
1	613	682.912798275612	39.788265527133
1	618	691.846940780034	32.656762311844
1	623	694.297930537501	7.613915846578
1	625	695.478844435896	2.611415146268
1	630	698.206000827477	1.104229047287
1	635	704.086374508725	1.940734428923
1	640	710.448400844051	0.170699983631
1	645	725.164196419488	1.307018584701
1	650	731.545326813057	0.574805644317
1	661	757.563386221895	3.280955669972
1	663	759.24183488868	4.785061358116
1	668	762.853535986938	7.524625555884
1	670	763.370546089792	3.827346530965
1	675	767.627567141972	3.404741377017
1	683	776.199397659281	2.021425465573
1	685	781.866655864253	6.728966219211
1	690	790.775499662774	1.345569673026
1	695	791.954156603566	1.017519448059
1	709	811.011999493379	10.66474614692
1	711	814.383780769021	10.464775224986
1	713	816.836253541453	7.944617001088
1	715	818.279800912447	7.76754578159
1	729	853.576570954969	33.437865855185
1	731	855.477715621841	30.717783707589
1	736	858.07695053241	33.022367737648
1	747	863.353323526236	10.506727219427
1	749	868.562378882387	11.109055788504
1	754	881.205453550632	21.441193648623
1	756	882.128093868276	21.815524606547
1	761	891.854120682514	30.055164831131
1	769	902.484466680829	26.299467561699
1	771	905.750918446532	19.310506897232
1	776	933.284881146471	39.426332766338
1	778	935.094682753086	37.86145021534
1	792	941.569375481983	35.223653736489
1	794	944.458983311497	9.195012474769
1	796	949.75362312507	10.833147324942
1	801	957.371513765291	17.632144707526
1	803	963.03766713565	23.08166660504
1	805	963.600993822252	8.398628966913
1	810	972.316705091532	0.289427261169
1	821	977.626964933721	3.841446041148
1	823	979.006390899182	5.100374649149
1	825	981.72670407993	7.501893383086
1	833	1002.063844576945	14.103989327311
1	835	1003.313282073187	1.931410405613
1	840	1008.695013468303	0.019234039828
1	851	1017.809232766018	7.980878578956
1	853	1018.63530607656	5.967014435303
1	855	1019.2518648278	4.089438351091
1	869	1038.04283562279	17.492804005018
1	874	1041.677806433538	20.652501964547
1	876	1043.271142784278	14.144010696798
1	884	1048.388361561416	15.496651428081
1	886	1049.694399713564	9.239635388803
1	888	1050.524071909301	2.819504976287
1	893	1052.872544420112	5.096254129824
1	895	1052.998523023862	0.308915435888
1	903	1073.133601990075	4.940197961415
1	908	1074.758546965725	3.330181049583
1	913	1089.033240947376	15.307799860266
1	927	1100.587006203167	15.112418646533
1	929	1102.870119232991	13.264579348227
1	934	1107.114466077716	13.620522312666
1	945	1116.38942632629	22.77321994344
1	953	1124.639405073373	28.98067705962
1	958	1129.594943637867	24.374497191437
1	963	1141.018424573726	32.303674122885
1	971	1145.174363166445	33.016771718367
1	973	1149.964491013826	37.09840543892
1	978	1153.714023208088	34.324804616649
1	992	1163.451053579802	40.761425767468
1	994	1164.052951649138	38.842235177675
1	999	1171.614829602859	40.187917009736
1	1001	1177.281728219986	35.97048629108
1	1003	1182.530004936333	40.251366566774
1	1005	1182.675615274776	30.646748520128
1	1007	1186.854359490002	30.369157325275
1	1009	1187.580540271939	27.335553244689
1	1011	1190.130140758164	28.871752609827
1	1013	1193.496084565807	31.180979664402
1	1015	1193.92502201791	24.524419632286
1	1032	1203.760598536089	8.98917626397
1	1037	1204.477750364455	8.221549545501
1	1039	1206.781190352796	8.195554575343
1	1041	1224.851128302536	25.553709979133
1	1043	1228.230188058453	26.050922594743
1	1045	1229.907657323964	26.079111685469
1	1059	1251.341436078482	20.018948030732
1	1061	1251.62654477238	15.647835516444
1	1063	1253.550307485152	14.743891552619
1	1077	1262.838624055883	22.831985830722
1	1082	1263.559300865609	8.310273395167
1	1084	1266.421094945333	9.678237396413
1	1086	1268.164015283268	9.983580026735
1	1088	1269.313168285832	8.121702334656
1	1090	1271.116080875932	8.144903098742
1	1095	1278.39031480208	2.389097500573
1	1106	1296.712785332084	13.867643872295
1	1108	1297.862710242411	11.869220646509
1	1110	1299.762187452719	11.456833760295
1	1121	1310.501110423633	4.926655908614
1	1129	1315.517607916084	8.388584598072
1	1134	1320.123148269741	12.401024556583
1	1139	1324.746073611342	13.495410206487
1	1147	1326.422915146406	13.079866055591
1	1149	1327.014590284938	11.039498246638
1	1151	1329.194516911447	5.736930338018
1	1153	1335.570771260715	10.35783123784
1	1155	1338.863194821762	12.444854997944
1	1160	1351.494149609445	1.384309088409
1	1177	1367.393803346959	15.392290563467
1	1179	1368.327101577858	15.172112529241
1	1184	1382.565627679729	29.322686828768
1	1189	1389.010864333728	34.338761787121
1	1191	1389.431450729412	24.906956865416
1	1196	1396.135286932927	22.250565172763
1	1201	1402.871998153706	18.647063175262
1	1203	1403.174435301234	11.67645136649
1	1208	1405.656398505871	7.193333343834
1	1213	1411.186594737052	7.148777142413
1	1224	1424.543075801848	17.400661539892
1	1226	1430.236374929113	18.825043253335
1	1228	1432.292488905183	13.198269724108
1	1254	1457.681329742507	34.653249173163
1	1256	1458.684561225002	25.626188002749
1	1258	1461.412569842049	28.315767501995
1	1260	1461.630654798143	27.938222632032
1	1268	1469.384337018459	34.918436353468
1	1270	1474.299887211013	36.45590902392
1	1272	1478.559591732148	36.349213680932
1	1286	1495.69197386358	49.520218990844
1	1288	1496.01329797799	45.114238784904
1	1296	1508.436705995542	44.337662966525
1	1298	1510.825009870641	44.93224997977
1	1300	1518.911817813484	35.293149326034
1	1305	1521.281244058266	36.385262277372
1	1307	1525.890641208957	36.593561826421
1	1312	1535.77159484372	44.071607448596
1	1314	1536.484768073457	39.421885464799
1	1319	1540.495741070697	32.381155660088
1	1321	1544.524622200062	24.652564693052
1	1326	1557.514640381422	26.09438462074
1	1334	1566.192173863141	29.431147204866
1	1336	1569.476271293152	19.508730638925
1	1341	1586.418661468018	26.938109168012
1	1346	1588.794296183418	24.168746726071
1	1351	1590.537452827518	10.387050142496
1	1359	1600.281257921329	12.515410195714
1	1361	1602.999702957745	12.874424285192
1	1363	1603.83501276068	7.347625110703
1	1365	1607.055848042321	7.619788384647
1	1379	1639.335639852358	25.691314646615
1	1384	1640.400201988316	18.487177817775
1	1386	1645.324590178117	17.622226144538
1	1388	1645.691308751273	15.103393177553
1	1393	1647.328926458487	7.28497542273
1	1398	1653.971761477303	6.851210595912
1	1400	1654.318530851981	6.829814339538
1	1405	1656.150787589251	0.771766401518
1	1410	1662.761587525907	0.333515333693
1	1424	1687.31503497487	8.721432875294
1	1426	1688.840297247734	9.224452979515
1	1428	1689.320628077555	9.043307027833
1	1436	1692.597447664023	9.642781392396
1	1444	1702.972972833478	12.166735412649
1	1449	1704.389441995808	12.525057775481
1	1454	1707.563057506717	14.735687949139
1	1465	1713.202240592529	19.263671901563
1	1470	1732.818324736839	29.14268898805
1	1472	1744.581500226119	39.000042325771
1	1480	1746.95331241482	38.920053000677
1	1482	1747.611639357714	35.216766726273
1	1484	1751.707736457513	38.998305891707
1	1486	1752.134384017191	26.492662400682
1	1494	1762.501266209619	17.875634970398
1	1496	1762.787578566847	17.756801329713
1	1501	1765.741785198439	12.334238584573
1	1503	1772.964076094775	18.334566605483
1	1505	1773.858502327484	9.938975348361
1	1510	1785.089186978688	9.088252600447
1	1518	1795.979424354432	9.312063366919
1	1520	1796.851292809037	1.134134143386
1	1525	1798.368117337888	1.294135523243
1	1530	1808.68119657822	1.976102740435
1	1538	1815.861257407125	1.075053430692
1	1540	1817.985256156334	2.489393900759
1	1545	1828.766782325971	3.537611322959
1	1553	1839.224591108735	1.314385097031
1	1558	1847.880284081196	9.896158916425
1	1563	1850.982885593959	4.276913527248
1	1571	1861.074692611245	13.013716200058
1	1576	1863.154486342663	11.645559306006
1	1581	1865.943322526315	13.648132765821
1	1583	1870.141264303683	7.497544442543
1	1585	1870.182899515253	6.865854114197
1	1593	1871.876472017073	1.616737068629
1	1598	1879.739173678593	9.470587481559
1	1600	1883.515895555477	10.497246460213
1	1611	1890.450847552327	6.502841407933
1	1616	1892.008700855243	7.41343311009
1	1624	1898.760628797774	10.304550093218
1	1626	1901.558152653692	11.035233011887
1	1628	1904.662077006747	9.730288638308
1	1630	1905.344708926403	9.032275614353
1	1635	1906.225272435601	0.309603686222
1	1640	1909.076385124261	1.980124961816
1	1645	1921.10494652179	5.161735902744
1	1650	1927.815413272138	0.54037358162
1	1664	1950.544459169047	14.737814688847
1	1666	1952.32817654733	13.414102434347
1	1674	1955.313178315109	16.044141095896
1	1679	1959.941319030011	15.192683216254
1	1681	1961.561978861652	8.728667000823
1	1683	1961.820797358582	7.464621552845
1	1685	1963.286150466447	4.066801486143
1	1690	1975.526765392479	2.105701648272
1	1695	1983.705965005401	3.172134799364
1	1712	2019.888864897089	16.50024416708
1	1720	2028.480980096633	23.676278827202
1	1722	2028.726741665694	17.92633447578
1	1730	2032.586220811506	20.38487234227
1	1735	2034.138471377674	18.991710850088
1	1737	2035.061394340006	14.437544457323
1	1739	2037.805097180621	10.778177912094
1	1741	2041.084836352411	9.742921335968
1	1743	2048.068806778552	15.749808843654
1	1745	2049.307476733232	16.339973351681
1	1751	2062.249339458799	6.016886481687
