version 2
run Testbench_1-720-20170516-19:19:42-55692
attr configname Testbench_1
attr datetime 20170516-19:19:42
attr experiment Testbench_1
attr inifile omnetpp.ini
attr iterationvars $0=200
attr iterationvars2 "$0=200, $repetition=20"
attr measurement $0=200
attr network Toll_road
attr processid 55692
attr repetition 20
attr replication #20
attr resultdir results
attr runnumber 720
attr seedset 720
param **.numBooths 3
param **.queue[*].serviceTime exponential(5.11s)
param **.source.interArrivalTime exponential(5.854s)
param **.source.numJobs 1000

vector 0  Toll_road.queue[0]  jobsProcessed:vector  ETV
attr interpolationmode  none
attr source  queueingTime
attr title  "jobs processed, vector"
vector 1  Toll_road.sink  lifeTime:vector  ETV
attr interpolationmode  none
attr title  "lifetime of arrived jobs, vector"
attr unit  s
0	3	5.478822087424	0
0	8	11.556758032164	0
0	12	16.689152274595	3.85528705316
0	18	23.244510833401	0
0	23	30.979660110859	0
0	28	43.781700320356	0
0	32	52.533185175983	7.252762425093
0	40	58.848657676431	4.061010122881
0	42	61.03354702927	4.246825967524
0	47	62.000826629859	0.395363728696
0	52	65.26575156296	2.98712252878
0	58	69.382184258864	0
0	65	74.287013563079	2.460734765081
0	76	106.327337260157	33.728125997774
0	99	127.424762059921	48.079260456889
0	107	139.428241059037	58.872960173451
0	109	141.638430921555	35.593592188738
0	111	146.144265612247	37.841131209803
0	125	166.20513315849	56.763808564128
0	127	170.343535866593	59.42508624483
0	132	173.593910052131	61.528522584091
0	134	173.727866625073	60.962759545989
0	136	174.36614770435	58.173796323059
0	138	174.630302260367	55.986239025526
0	143	179.180266334239	49.838022609832
0	145	179.68512360501	49.750595969782
0	147	179.864807782189	29.671143795668
0	149	180.924030193164	26.62883808684
0	160	200.655449964387	45.429242203237
0	168	206.791517345195	43.14916646158
0	170	211.51150594407	38.142051222696
0	172	211.619019278796	33.239642060772
0	177	218.220681280578	33.643521603435
0	182	222.412357206931	37.057944572072
0	187	223.276046665568	25.803560540753
0	192	226.250721532836	24.59623555732
0	197	242.772407370296	37.463373543873
0	199	244.560540282855	28.709276484544
0	207	255.621567967921	34.592944210111
0	212	258.726802529439	35.829372029475
0	214	263.252994032892	39.676376136662
0	222	275.369612382927	47.044008699167
0	224	275.661127008644	22.963842743453
0	226	282.991903845439	29.432113115653
0	228	287.662712877149	31.693836254306
0	236	293.184986486958	29.24253028985
0	238	293.876536953886	24.400105779632
0	243	302.299980966374	12.330516299218
0	245	302.327492873353	12.063760798806
0	247	302.877295816048	2.307943272201
0	252	304.74768853883	0.308572036801
0	258	312.344466611257	0
0	262	316.261288190879	3.35604788218
0	268	324.306313310793	0
0	273	326.467247119712	0
0	278	331.660019209997	0
0	282	338.147865430797	2.435856431453
0	287	342.586583485177	3.797656347789
0	293	354.370883553718	0
0	306	370.546564247015	6.848904567015
0	308	372.610194990007	7.84210553422
0	310	373.939059388605	6.998630009369
0	324	398.756627773355	29.21229999191
0	341	415.121726521804	37.595194611679
0	355	429.320151068707	49.760707019976
0	366	447.191842613968	61.329379125268
0	371	453.250876042354	55.282927274032
0	373	459.110705404384	60.351987636732
0	375	463.101562771347	61.07433592268
0	380	474.194399088962	71.854684242873
0	382	478.718720953814	75.574734111863
0	384	483.021198957126	78.021936092759
0	386	486.930594388095	70.214251273123
0	400	493.838772809104	74.030868699478
0	408	502.625966460138	81.113945116512
0	410	505.444554222647	81.514136052524
0	415	510.074518332917	78.256141241271
0	420	515.837974325623	71.670445779717
0	422	518.334563820007	71.229233287875
0	424	519.09279068767	66.711833187864
0	429	526.802040944917	63.53244995154
0	431	528.633150625046	39.160748219902
0	433	530.603362737288	39.82411041652
0	435	532.278685447042	39.66969141636
0	437	532.876295823107	39.052310354557
0	439	534.605936680787	35.578757768052
0	444	535.94578430967	35.191561088863
0	446	537.150780816077	28.037061461488
0	448	545.085840236745	32.77675877978
0	450	546.005580836953	23.5235638959
0	452	549.928262511988	15.202409874641
0	458	559.805957306057	0
0	462	562.230488332213	2.189419296971
0	470	572.020472851284	6.935043029214
0	478	580.028290148495	9.119153012861
0	480	584.024675163827	11.218030621401
0	482	584.896530181875	7.719522574968
0	493	603.413941696852	7.41907473944
0	498	607.448462031834	10.781410853831
0	506	618.486459569752	15.654907947721
0	517	626.820330623155	22.032719865668
0	519	628.04973733906	19.913470118232
0	527	630.951846288846	15.413291761233
0	529	631.010021760363	12.07936927547
0	531	636.016220617048	9.774006627773
0	539	642.411532122166	15.912970064826
0	544	650.528721926453	19.808861220396
0	546	654.987991164871	24.18453593277
0	551	657.642501533509	17.866604200894
0	553	659.296556848593	18.385366993931
0	564	663.246408203652	18.107706473483
0	566	665.892800746115	10.048282999112
0	571	670.524488428598	10.993639363297
0	573	674.138077867391	13.006367946607
0	581	682.466897867152	20.613101454568
0	586	697.995562296893	30.49360651814
0	591	710.494849824991	30.372248944765
0	593	710.853423623849	29.095508843011
0	604	721.741475834822	24.098160137536
0	606	724.153613913268	24.554647021266
0	608	724.878710967819	12.708408223728
0	610	725.243692996527	10.426653075254
0	618	747.209651469728	27.358710934036
0	629	774.971851589408	30.65969578185
0	643	781.361409683459	36.087357313245
0	648	783.299190387633	31.432479218826
0	653	792.340601168671	31.718754353277
0	655	793.374078426753	31.748168749792
0	663	800.893300132792	25.667423680958
0	665	803.584300490584	27.91513468963
0	667	808.07410367622	28.529996552616
0	675	811.67866384332	31.512132569569
0	680	817.826985672299	35.921239929766
0	694	834.151694174469	49.13450332237
0	696	834.96175613774	40.71471204868
0	698	836.624266388247	36.691447769607
0	700	841.22298329565	31.684664274076
0	705	841.864792313743	31.115152051747
0	707	842.969521806188	30.66524114091
0	709	844.882656641142	26.444444465255
0	711	845.304026757589	22.316878363005
0	719	851.380142680643	20.962663396527
0	739	864.676037948834	33.706246112641
0	744	865.654076220479	24.288255611428
0	746	865.840143810718	19.834422740023
0	748	867.010576131954	20.500317670603
0	753	873.145976440379	21.610999678172
0	755	878.342652875792	23.530523883636
0	760	883.295324490904	25.334499531545
0	768	887.194900806038	28.893603231563
0	770	889.83093995694	25.758786801724
0	772	894.05776605473	29.861885576872
0	780	906.112822858729	41.282151409876
0	785	907.227698127652	40.021277461457
0	787	909.078312743779	28.886148098506
0	795	919.110131718752	34.186206549259
0	797	923.047649986987	37.652802400787
0	799	926.529702759654	26.744854719499
0	804	928.015133096986	23.762137580991
0	812	935.093528146144	28.412002955393
0	814	935.822608828581	24.014083793765
0	819	942.617417280794	28.489391792189
0	824	944.56976857181	17.741938780274
0	832	955.464117826027	22.709390932139
0	837	959.983887716302	25.545550740925
0	839	960.043206777728	22.883141442273
0	841	960.059279646202	16.87369096583
0	846	965.682175602517	20.722817258738
0	848	966.509964666133	15.517407187949
0	850	966.812083776532	10.583583274142
0	852	969.101428561148	4.64779515599
0	857	975.467911755252	5.907284074743
0	863	978.848690788116	0
0	870	986.336001245045	5.555253817551
0	872	987.578516032071	4.55169402059
0	883	1000.648377404016	6.098522345452
0	885	1002.342554673625	6.977095467073
0	890	1024.406216323797	26.900131890804
0	892	1024.90901695499	19.928467148296
0	898	1034.240509877705	0
0	902	1038.74551219219	1.75958928863
0	910	1051.398329914213	1.783660693554
0	912	1055.889046027595	4.933941142709
0	918	1065.073752130222	0
0	922	1067.587232260674	1.232262805776
0	928	1070.746828974002	0
0	938	1072.773741226819	1.283180126166
0	955	1096.857887883158	24.890854663711
0	960	1102.36747875447	30.177377155722
0	965	1104.072574857588	30.97262812067
0	967	1104.098169987257	21.681915804053
0	969	1108.071036169231	20.902993414724
0	971	1110.888304629277	14.542895997865
0	973	1113.652215492378	17.018611514259
0	975	1116.452609689139	16.681635595797
0	986	1125.81475154822	22.869902007316
0	988	1126.152768805115	8.31146108601
0	994	1138.914729809577	17.8192990311
0	996	1139.476302127325	13.705549962218
0	998	1145.676175908047	16.650178282848
1	5	5.681508044373	0.202685956949
1	13	16.689152274595	5.132394242431
1	15	20.065390926437	7.231525705002
1	20	25.734400654183	2.489889820782
1	25	31.707182460412	0.727522349553
1	33	52.533185175983	8.751484855627
1	41	58.848657676431	13.568234925541
1	43	61.03354702927	6.24589947572
1	48	62.000826629859	5.214105568113
1	53	65.26575156296	3.660288661797
1	55	68.12712216591	5.84849313173
1	66	74.287013563079	4.904829304215
1	77	106.327337260157	34.501058462159
1	100	127.424762059921	54.825550797538
1	108	139.428241059037	60.082739456005
1	110	141.638430921555	61.083150035969
1	112	146.144265612247	40.09942687943
1	126	166.20513315849	57.901998756046
1	128	170.343535866593	60.902211272231
1	133	173.593910052131	62.675460430368
1	135	173.727866625073	61.662479157033
1	137	174.36614770435	61.601040625266
1	139	174.630302260367	58.437950879076
1	144	179.180266334239	60.536203099398
1	146	179.68512360501	50.342879880603
1	148	179.864807782189	49.930280146961
1	150	180.924030193164	30.730366206643
1	161	200.655449964387	46.360257858063
1	169	206.791517345195	51.565309584045
1	171	211.51150594407	47.869155060455
1	173	211.619019278796	38.249564557422
1	178	218.220681280578	39.841304062554
1	183	222.412357206931	37.835197529788
1	188	223.276046665568	37.921634030709
1	193	226.250721532836	28.778235408021
1	198	242.772407370296	41.11792139478
1	200	244.560540282855	39.251506456432
1	208	255.621567967921	39.77030416961
1	213	258.726802529439	37.698178771629
1	215	263.252994032892	40.355563532928
1	223	275.369612382927	51.792994486697
1	225	275.661127008644	47.335523324884
1	227	282.991903845439	30.294619580248
1	229	287.662712877149	34.102922147363
1	237	293.184986486958	37.216109864115
1	239	293.876536953886	29.934080756778
1	244	302.299980966374	32.82354979212
1	246	302.327492873353	12.358028206197
1	248	302.877295816048	12.613563741501
1	253	304.74768853883	4.178335994983
1	255	307.028963729155	2.589847227126
1	263	316.261288190879	3.916821579622
1	265	317.648912936186	4.743672627487
1	270	325.362001777144	1.055688466351
1	275	331.590180373705	5.122933253993
1	283	338.147865430797	6.4878462208
1	288	342.586583485177	6.874574485833
1	290	342.608667178442	3.819740041054
1	307	370.546564247015	16.175680693297
1	309	372.610194990007	8.912535310007
1	311	373.939059388605	9.170969932818
1	325	398.756627773355	31.816198394119
1	342	415.121726521804	45.577398740359
1	356	429.320151068707	51.793619158582
1	367	447.191842613968	67.632398565237
1	372	453.250876042354	67.388412553654
1	374	459.110705404384	61.142756636062
1	376	463.101562771347	64.342845003695
1	381	474.194399088962	72.167172240295
1	383	478.718720953814	76.379006107725
1	385	483.021198957126	79.877212115175
1	387	486.930594388095	81.931331523728
1	401	493.838772809104	77.122429694132
1	409	502.625966460138	82.818062350512
1	411	505.444554222647	83.932532879021
1	416	510.074518332917	86.144100162794
1	421	515.837974325623	84.019597233977
1	423	518.334563820007	74.167035274101
1	425	519.09279068767	71.987460155538
1	430	526.802040944917	74.421083445111
1	432	528.633150625046	65.363559631669
1	434	530.603362737288	41.130960332144
1	436	532.278685447042	41.499433126274
1	438	532.876295823107	40.267301792425
1	440	534.605936680787	40.781951212237
1	445	535.94578430967	36.918605396935
1	447	537.150780816077	36.39655759527
1	449	545.085840236745	35.972120882156
1	451	546.005580836953	33.696499379988
1	453	549.928262511988	27.446245570935
1	455	553.223144924124	18.497292286777
1	463	562.230488332213	2.424531026156
1	471	572.020472851284	11.979403816042
1	479	580.028290148495	14.942860326425
1	481	584.024675163827	13.115538028193
1	483	584.896530181875	12.089885639449
1	494	603.413941696852	26.236934089945
1	499	607.448462031834	11.453595074422
1	507	618.486459569752	21.819408391749
1	518	626.820330623155	23.988779001124
1	520	628.04973733906	23.262126581573
1	528	630.951846288846	22.815579068018
1	530	631.010021760363	15.47146723275
1	532	636.016220617048	17.085568132155
1	540	642.411532122166	16.169318132891
1	545	650.528721926453	24.030159869113
1	547	654.987991164871	24.268130458814
1	552	657.642501533509	26.839046301408
1	554	659.296556848593	19.520659515978
1	565	663.246408203652	22.33521834899
1	567	665.892800746115	20.754099015946
1	572	670.524488428598	14.679970681595
1	574	674.138077867391	14.60722880209
1	582	682.466897867152	21.335187946368
1	587	697.995562296893	36.141765884309
1	592	710.494849824991	42.992894046238
1	594	710.853423623849	30.730822743623
1	605	721.741475834822	39.983561053984
1	607	724.153613913268	26.510298215982
1	609	724.878710967819	25.279744075817
1	611	725.243692996527	13.073390252436
1	619	747.209651469728	32.392611548455
1	630	774.971851589408	55.120911053716
1	644	781.361409683459	37.049253875901
1	649	783.299190387633	38.025138017419
1	654	792.340601168671	40.473889999864
1	656	793.374078426753	32.752231611359
1	664	800.893300132792	39.267390455831
1	666	803.584300490584	28.35842403875
1	668	808.07410367622	32.404937875266
1	676	811.67866384332	32.134556719716
1	681	817.826985672299	37.660454398548
1	695	834.151694174469	52.245948431936
1	697	834.96175613774	49.944565285641
1	699	836.624266388247	42.377222299187
1	701	841.22298329565	41.29016467701
1	706	841.864792313743	32.326473292169
1	708	842.969521806188	32.219881544192
1	710	844.882656641142	32.578375975864
1	712	845.304026757589	26.865814581702
1	720	851.380142680643	28.392994286059
1	740	864.676037948834	34.258558664718
1	745	865.654076220479	34.684284384286
1	747	865.840143810718	24.474323201667
1	749	867.010576131954	21.004855061259
1	754	873.145976440379	26.635717979028
1	756	878.342652875792	26.807676113585
1	761	883.295324490904	28.483195498748
1	769	887.194900806038	29.234075846679
1	771	889.83093995694	31.529642382465
1	773	894.05776605473	29.985612899514
1	781	906.112822858729	41.916942380871
1	786	907.227698127652	42.397026678799
1	788	909.078312743779	41.871892077584
1	796	919.110131718752	38.917967073479
1	798	923.047649986987	38.123724817494
1	800	926.529702759654	41.134855173454
1	805	928.015133096986	28.230285056831
1	813	935.093528146144	30.840532630149
1	815	935.822608828581	29.14108363783
1	820	942.617417280794	30.808892245978
1	825	944.56976857181	30.441743083205
1	833	955.464117826027	28.636288034491
1	838	959.983887716302	27.229160822414
1	840	960.043206777728	25.604869802351
1	842	960.059279646202	22.899214310747
1	847	965.682175602517	22.496586922145
1	849	966.509964666133	21.550606322354
1	851	966.812083776532	15.819526298348
1	853	969.101428561148	12.872928058758
1	858	975.467911755252	11.014278350094
1	860	976.602419179041	7.041791498532
1	871	986.336001245045	7.487310456929
1	873	987.578516032071	6.797768604577
1	884	1000.648377404016	17.621555392535
1	886	1002.342554673625	7.792699615061
1	891	1024.406216323797	29.040757117245
1	893	1024.90901695499	27.402932521997
1	895	1027.595415399555	22.614865592861
1	903	1038.74551219219	4.505002314485
1	911	1051.398329914213	14.412407010653
1	913	1055.889046027595	6.274376806936
1	915	1059.569796629761	8.614691744875
1	923	1067.587232260674	2.513480130452
1	925	1068.056534669597	1.701565214699
1	939	1072.773741226819	2.026912252817
1	956	1096.857887883158	25.367326782505
1	961	1102.36747875447	30.400445535023
1	966	1104.072574857588	31.88247325884
1	968	1104.098169987257	30.998223250339
1	970	1108.071036169231	25.654781986027
1	972	1110.888304629277	23.72026187477
1	974	1113.652215492378	17.306806860966
1	976	1116.452609689139	19.81900571102
1	987	1125.81475154822	26.043777454878
1	989	1126.152768805115	23.207919264211
1	995	1138.914729809577	21.073422090472
1	997	1139.476302127325	18.380871348848
1	999	1145.676175908047	19.90542374294
1	1001	1149.734960981623	20.708963356424
