version 2
run Testbench_1-1400-20170516-19:22:58-60476
attr configname Testbench_1
attr datetime 20170516-19:22:58
attr experiment Testbench_1
attr inifile omnetpp.ini
attr iterationvars $0=375
attr iterationvars2 "$0=375, $repetition=0"
attr measurement $0=375
attr network Toll_road
attr processid 60476
attr repetition 0
attr replication #0
attr resultdir results
attr runnumber 1400
attr seedset 1400
param **.numBooths 3
param **.queue[*].serviceTime exponential(5.11s)
param **.source.interArrivalTime exponential(5.854s)
param **.source.numJobs 1000

vector 0  Toll_road.queue[0]  jobsProcessed:vector  ETV
attr interpolationmode  none
attr source  queueingTime
attr title  "jobs processed, vector"
vector 1  Toll_road.sink  lifeTime:vector  ETV
attr interpolationmode  none
attr title  "lifetime of arrived jobs, vector"
attr unit  s
0	3	0.77327209642	0
0	7	2.961923713805	0.331318559566
0	15	6.981999974574	2.678308011671
0	23	14.700183274798	7.922645450424
0	25	17.943280794559	9.664817149099
0	27	18.547438187953	4.388108017779
0	33	31.668086223309	0
0	52	53.942143841155	18.034468997785
0	57	57.3010916518	20.29477922538
0	68	63.664849708983	22.989675373821
0	70	64.744857086113	21.854839036947
0	72	64.834544450112	19.597669894314
0	74	67.918304728791	21.830526855846
0	76	73.34527695361	19.343157275968
0	78	73.861633472322	15.299631675379
0	80	77.330930082517	18.512322092874
0	85	81.241226145262	20.545821113416
0	90	83.697784877269	4.556932664113
0	92	87.551809181094	6.099537055626
0	97	87.898241433754	0.140832106956
0	103	92.590024257294	0
0	110	98.591129524267	0.758565000503
0	115	100.775707071263	2.512897485472
0	123	111.846673435975	11.988555538014
0	128	113.979870435078	12.652201227478
0	133	119.094205408155	8.72026918027
0	135	119.712794044443	7.007223024688
0	140	122.303542443059	4.044609799746
0	145	125.39445474178	5.369069454257
0	147	126.851885919409	3.165365972535
0	167	138.712499556518	9.696368397072
0	169	141.980494084783	9.775948936523
0	177	143.299923172066	8.798459809857
0	179	144.432273024362	9.674388573639
0	184	145.136474052327	9.574584381802
0	189	147.927743608694	11.440255497274
0	194	153.053352842907	10.447414431827
0	199	171.143060489196	28.158467628486
0	207	175.844576520249	31.331084899836
0	209	181.820435545661	36.106685177944
0	211	182.137695633415	33.283405045617
0	213	186.545298128472	27.064370919902
0	218	187.898546106858	15.983029815287
0	220	188.128077414796	15.577249434591
0	225	190.324061376608	2.664457576706
0	239	202.032063481168	12.795382604545
0	244	204.749678628364	13.715927275867
0	252	209.17009478629	10.642829022406
0	257	209.327290683059	8.546140657843
0	259	212.482719504444	10.515347986262
0	264	217.642677520324	14.41290558332
0	266	221.520056900449	16.4504845216
0	268	225.311102789975	16.308100281633
0	270	226.655154965128	17.458757037427
0	272	233.767668167497	18.464756527653
0	277	244.621776989677	8.620133933696
0	285	255.820440436053	11.064447693334
0	287	257.282284754562	9.51195962205
0	301	270.682298323157	9.654801305857
0	303	271.774047333205	4.520209246314
0	308	278.089383277698	9.201645026461
0	316	289.701865206182	19.867200016464
0	321	292.849323277991	19.84594153803
0	338	306.430776560211	22.816681802841
0	349	316.869813404346	31.424653173144
0	351	319.611741860585	29.120108970383
0	356	326.87776171352	32.827289668994
0	358	327.103619373759	31.510033879389
0	360	330.306431183054	33.332068996791
0	374	340.584837058309	37.006595624814
0	379	345.376337054891	39.702439129972
0	381	345.550707205865	37.384306919542
0	383	346.985164983924	32.029753959286
0	385	350.100961361978	34.85279179815
0	387	350.215439399646	23.862613417577
0	389	351.369589445551	17.605187768557
0	391	353.756827030765	18.596216660674
0	393	356.191968770701	19.660158173307
0	395	357.922594078224	20.159590341722
0	397	361.752563401692	20.981617568328
0	403	370.445746934467	0
0	408	384.319069016766	0
0	413	391.471131814904	0
0	418	398.625153070482	0
0	422	400.210142389401	0.941798435763
0	428	414.813110730105	0
0	435	421.027052561371	4.758299546279
0	437	421.546274742161	2.437062514085
0	448	429.299183664762	6.131951260568
0	453	431.348881209129	5.037910101229
0	455	431.638022633041	2.398199401407
0	457	436.350989812867	5.161349217776
0	465	441.829172614639	5.121474898287
0	473	448.475396260731	8.253847546269
0	475	454.266243398383	11.053352341767
0	483	460.057599679947	16.535912118531
0	485	462.543181538219	6.802253820528
0	487	463.508625782887	3.759363821626
0	492	470.048729425805	3.579102623555
0	498	474.560311913929	0
0	505	479.899938039868	4.647530590386
0	507	483.310856032075	3.677708773492
0	512	485.910037675834	0.309699647833
0	517	490.521212281954	3.172751382293
0	523	497.677032055688	0
0	528	499.854354587775	0
0	535	507.443689654072	2.368721446896
0	543	522.090476140938	16.334334698515
0	548	527.143697878382	17.603198863796
0	550	527.671472965712	6.803233011272
0	576	541.497956501332	15.123346129094
0	581	542.837147887273	14.451851996436
0	586	555.457073667984	21.492263848261
0	588	556.595755791051	20.809801671578
0	590	557.867600314203	21.21853585413
0	595	565.048451129025	27.690445782894
0	597	577.561459427108	39.034286923817
0	608	585.06499559891	45.915219898893
0	613	592.26054389088	51.007752268922
0	615	592.341301639111	49.68569995334
0	617	594.310036140003	40.879618811284
0	619	595.731301015523	35.972622010892
0	627	602.70147546893	24.843745415911
0	629	606.918675286704	25.230484861481
0	634	611.184616284382	27.885509370787
0	636	616.592518492603	30.226993297147
0	644	619.268892229816	23.323266091181
0	646	622.188570721966	22.365978102986
0	669	643.00136177138	35.666581873917
0	671	644.308043923635	26.098542948546
0	673	644.717086406018	25.511080611105
0	675	649.666512697001	18.155569758736
0	677	656.823805255361	24.04834677386
0	679	658.567665840755	24.536291478315
0	684	663.744142852481	28.126378266111
0	695	678.316285495963	38.653556795099
0	700	680.726922776083	38.919007334665
0	705	688.69450233346	45.999684764091
0	710	692.261216770311	31.360358152776
0	712	695.067345147682	25.354939968953
0	714	697.181015757164	27.301714323619
0	722	702.447005210643	30.499404588003
0	724	705.572813146777	25.538344573822
0	726	708.331737940963	25.52888394057
0	731	711.029192719244	20.943557594316
0	733	714.865286385945	15.95454134383
0	735	715.356481222483	13.915289633172
0	737	716.308677469937	5.809605194592
0	743	722.569125761342	0
0	750	728.095423239725	2.237226951544
0	758	744.246858596897	17.520865516003
0	763	749.079054021823	13.482699853075
0	765	749.239642663942	7.484261823543
0	767	749.318240681344	0.865496757521
0	772	757.017629014689	6.300867052055
0	777	762.649446857472	5.153179819478
0	783	784.752812665253	0
0	788	796.124531497385	0
0	792	800.996095760216	4.790449457211
0	798	810.039458451222	0
0	803	819.883316177473	0
0	807	820.475169052232	0.128203518501
0	812	823.759015621985	2.5960598999
0	818	843.934812969651	0
0	822	845.469894580991	0.753059862937
0	828	852.411325168064	0
0	833	855.90791283377	0
0	838	868.836413402878	0
0	843	872.687194560362	0
0	848	883.380543589721	0
0	853	887.736811549093	0
0	858	892.46704396191	0
0	863	900.889920209693	0
0	868	905.805684792904	0
0	878	911.896633865401	5.914329908722
0	886	918.544128755825	11.266869249619
0	888	919.585798036145	10.080258380305
0	890	924.092935035661	11.213434806841
0	892	924.339833041168	10.235819650191
0	897	929.665593664887	3.34034006905
0	902	937.642891887992	0.060837218212
0	907	940.66554431058	2.381289264578
0	912	946.52367319579	2.476734206322
0	918	961.199876162861	0
0	923	972.394255692465	0
0	928	974.745095738043	0
0	933	983.395239372439	0
0	938	998.911470047345	0
0	945	1006.684840685874	3.457485478246
0	950	1015.284961901289	10.030434204439
0	952	1023.836321024655	12.028492162814
0	958	1027.618161728483	0
0	963	1048.424005147818	0
0	968	1054.995079552197	0
0	973	1071.748812956453	0
0	978	1073.296213654304	0
0	982	1078.821649793564	1.368113058016
0	988	1082.391894060139	0
0	995	1098.710241619741	15.885187143674
0	997	1104.775023671481	17.88542199289
0	1002	1107.490797773518	0.707704359062
0	1013	1118.380131593592	7.121151010566
0	1015	1120.30567940482	4.290201049291
0	1017	1121.2579955158	3.810913996077
0	1022	1123.138474283868	0.801823410417
0	1028	1130.640289409768	0
0	1033	1133.630625743878	0
0	1037	1149.80884626908	15.602903521568
0	1043	1154.374183427535	0
0	1048	1160.184007076439	0
0	1053	1165.490701880914	0
0	1058	1188.06556288677	0
0	1068	1195.330967649844	3.270672012042
0	1073	1197.279169110345	4.139331283142
0	1078	1202.107380242388	8.724580989483
0	1083	1209.20795922625	13.864976167532
0	1088	1220.381701378899	22.646829399899
0	1099	1222.995370356845	15.347665875291
0	1101	1223.867891102673	7.301885512021
0	1103	1224.36089868369	3.890483953501
0	1108	1225.968661746151	5.227976398034
0	1116	1230.900687948851	9.614191931678
0	1118	1231.804878144588	6.564104458522
0	1123	1239.701327511387	11.430509425352
0	1131	1244.855585436801	16.245453458266
0	1142	1250.630671319755	16.734885885327
0	1144	1256.950612995748	16.377502439004
0	1149	1258.865099781517	17.979267258929
0	1151	1260.326486519429	14.794283227981
0	1153	1264.30973064366	18.35756331278
0	1158	1266.163958839217	15.746481706279
0	1160	1267.836069235714	9.845995537631
0	1165	1269.426630951688	3.348633500963
0	1176	1275.274826865858	6.200302515783
0	1181	1277.922662846038	5.606277133327
0	1183	1278.465281757205	6.029597011808
0	1191	1294.706646855116	19.61756433232
0	1193	1294.858096406153	17.217087894351
0	1195	1297.325997657962	15.406499795594
0	1200	1300.817197721614	7.167890147126
0	1208	1310.697819264796	11.230161945797
0	1213	1312.009153163075	8.714898710267
0	1215	1314.939668617733	10.823056781938
0	1217	1320.091125992321	9.315568266274
0	1228	1336.01414875	11.833764994745
0	1230	1336.189403569616	5.677976466938
0	1232	1340.204768064214	7.465431938705
0	1238	1344.854370602564	0
0	1243	1349.636815587393	0
0	1248	1352.461324321848	0
0	1252	1357.492340430054	2.694908190106
0	1258	1360.612846992349	0
0	1277	1369.517624522709	8.751816695384
0	1282	1382.1715708092	17.353365245105
0	1284	1383.022615379311	17.672358506735
0	1292	1389.636258573224	24.018640047893
0	1294	1393.271916696088	26.683235327353
0	1305	1402.955303812172	33.60682721649
0	1307	1404.393092770177	33.771382413714
0	1309	1414.181951493429	29.153228370032
0	1314	1422.074344793376	36.755400736447
0	1316	1422.704631328477	29.396068912834
0	1318	1423.907384987268	26.883314130442
0	1320	1423.913794935195	26.450872515696
0	1325	1428.9712083804	14.617850901432
0	1330	1431.327459766287	2.59934229858
0	1335	1433.137431757576	2.788263978296
0	1337	1434.173156815642	1.565920280496
0	1343	1445.156398127365	0
0	1348	1451.893844110864	0
0	1355	1467.858130963674	13.842889465181
0	1363	1482.051205128665	16.283940111219
0	1365	1483.125955621781	10.300936053233
0	1367	1485.676970296183	6.723583560174
0	1372	1487.589017430929	1.234289216395
0	1377	1490.391207944911	1.082362220083
0	1382	1497.610843207523	0.310971708238
0	1388	1505.246003706887	0
0	1393	1515.620460513164	0
0	1397	1520.382832863136	0.518645621788
0	1403	1529.433529767498	0
0	1407	1534.012481714761	4.386948705686
0	1413	1559.550095294191	0
0	1420	1571.951408307413	10.212282411039
0	1422	1577.150955819896	7.178545258645
0	1430	1589.616506838119	10.740720695381
0	1432	1590.201920487624	8.358205875332
0	1438	1604.865333444933	0
0	1443	1611.792612992744	0
0	1448	1616.088858309456	0
0	1455	1623.577820352231	6.686801405609
0	1457	1625.14171039746	3.079611015435
0	1463	1647.57557971168	0
0	1468	1650.62204227854	0
0	1473	1652.670505374652	0
0	1478	1660.909297781918	0
0	1483	1677.901285356304	0
0	1488	1699.222427675152	0
0	1493	1708.209087194477	0
0	1503	1721.830152570257	10.446854011173
0	1508	1747.418166141727	34.670247007807
0	1516	1752.047736277183	34.021454522575
0	1518	1752.701219415452	17.555818912154
0	1520	1756.20257888336	7.463495341869
0	1528	1775.562879877601	25.427000501691
0	1530	1777.063848663754	5.460771459601
0	1541	1788.797683989997	16.624303358961
0	1543	1795.325266561574	15.977156727036
0	1545	1797.366118073532	14.08767325912
0	1547	1797.958640166243	14.029149558889
0	1552	1799.103896005855	0.664244246103
0	1558	1802.456262762931	0
0	1562	1805.505163528983	0.498448632076
0	1568	1810.314036147223	0
0	1584	1824.957046435702	6.192034568037
0	1589	1825.764354340027	5.693606895523
0	1594	1826.541436516368	4.948246927504
0	1596	1829.357605448638	7.445377822292
0	1598	1830.475077404574	7.627281772631
0	1600	1830.745117073256	5.758811602931
0	1602	1843.410446632808	17.359577361871
0	1608	1847.732140588479	0
0	1613	1857.125441338816	0
0	1618	1880.585733753351	0
0	1623	1887.892791481776	0
0	1630	1895.786169490904	7.237082314763
0	1632	1899.127698744194	10.484957023625
0	1646	1927.722545697999	26.650139930673
0	1648	1928.325131484041	13.351321606089
0	1650	1934.634884624749	19.130749680272
0	1652	1938.668034793354	20.086666060772
0	1657	1941.921400591425	2.956464916685
0	1663	1963.311768376726	0
0	1668	1969.340187877768	0
0	1673	1984.065246596529	0
0	1678	1993.369487062264	0
0	1683	1999.58244054314	0
0	1687	2002.571354276397	0.464328732018
0	1693	2006.120897463784	0
0	1698	2013.720630748517	0
0	1703	2020.57188250393	0
0	1713	2032.606013162948	5.504293270777
0	1718	2033.288412815136	4.808457189296
0	1720	2037.473219425649	6.539562031146
0	1722	2039.714836919986	6.511910096775
0	1728	2044.072812081158	0
0	1738	2058.73409751517	10.68668429283
0	1740	2074.683396373097	19.277416597104
0	1742	2075.074637945078	16.387659286028
0	1750	2079.733278857655	2.734665770954
0	1752	2079.984009610407	2.553777193258
0	1763	2091.089867355492	11.095187224379
0	1768	2096.949707852215	12.983811614561
0	1776	2112.00449026866	23.275855695239
0	1778	2112.911142367462	19.619073655755
0	1780	2113.037628692119	10.856819885032
0	1782	2113.866081859512	6.814161474579
0	1788	2131.613260756201	0
0	1792	2139.781474888574	3.676792420042
0	1797	2145.405452099266	5.215468083666
0	1803	2150.468537026914	0
0	1808	2162.953331398719	0
0	1813	2183.485671072005	0
0	1820	2198.535284136566	11.137808356073
0	1822	2201.535070435658	13.915616119072
0	1827	2202.785896749974	0.17919993157
0	1833	2209.190471742879	0
0	1837	2213.543076508116	0.4467397423
0	1843	2221.277843701138	0
0	1848	2229.796001998795	0
0	1853	2235.290266330886	0
0	1857	2238.341192144129	2.543115892166
0	1862	2239.271290806641	0.715030710121
0	1867	2240.520695437029	0.492320999843
0	1873	2246.479395879504	0
1	8	2.961923713805	2.188651617385
1	16	6.981999974574	4.351394820335
1	24	14.700183274798	10.396491311895
1	26	17.943280794559	11.165742970185
1	28	18.547438187953	10.268974542493
1	30	20.640579645436	6.481249475262
1	53	53.942143841155	22.274057617846
1	58	57.3010916518	21.39341680843
1	69	63.664849708983	26.658537282563
1	71	64.744857086113	24.069682750951
1	73	64.834544450112	21.944526400946
1	75	67.918304728791	22.681430172993
1	77	73.34527695361	27.257499080665
1	79	73.861633472322	19.85951379468
1	81	77.330930082517	18.768928285574
1	86	81.241226145262	22.422618155619
1	91	83.697784877269	23.002379845423
1	93	87.551809181094	8.410956967938
1	98	87.898241433754	6.445969308286
1	100	88.780402391478	1.02299306468
1	111	98.591129524267	6.001105266973
1	116	100.775707071263	2.943142547499
1	124	111.846673435975	13.583863850184
1	129	113.979870435078	14.121752537117
1	134	119.094205408155	17.766536200555
1	136	119.712794044443	9.338857816558
1	141	122.303542443059	9.597971423304
1	146	125.39445474178	7.135522098467
1	148	126.851885919409	6.826500631886
1	168	138.712499556518	15.025979609644
1	170	141.980494084783	12.964362925337
1	178	143.299923172066	11.095378023806
1	180	144.432273024362	9.930809662153
1	185	145.136474052327	10.378589601604
1	190	147.927743608694	12.365853938169
1	195	153.053352842907	16.565864731487
1	200	171.143060489196	28.537122078116
1	208	175.844576520249	32.859983659539
1	210	181.820435545661	37.306943925248
1	212	182.137695633415	36.423945265698
1	214	186.545298128472	37.691007540674
1	219	187.898546106858	28.417618898288
1	221	188.128077414796	16.212561123225
1	226	190.324061376608	17.773233396403
1	240	202.032063481168	14.372459681266
1	245	204.749678628364	15.512997751741
1	253	209.17009478629	18.136343433793
1	258	209.327290683059	10.800024919175
1	260	212.482719504444	11.701569479228
1	265	217.642677520324	15.675306002142
1	267	221.520056900449	18.290284963445
1	269	225.311102789975	20.241530411126
1	271	226.655154965128	17.652152456786
1	273	233.767668167497	24.571270239796
1	278	244.621776989677	29.318865349833
1	286	255.820440436053	19.818797380072
1	288	257.282284754562	12.526292011843
1	302	270.682298323157	22.911973190645
1	304	271.774047333205	10.746550315905
1	309	278.089383277698	10.835545190807
1	317	289.701865206182	20.814126954945
1	322	292.849323277991	23.014658088273
1	339	306.430776560211	33.42739482025
1	350	316.869813404346	33.255718646976
1	352	319.611741860585	34.166581629383
1	357	326.87776171352	36.386128823318
1	359	327.103619373759	33.053147329233
1	361	330.306431183054	34.712845688684
1	375	340.584837058309	43.610474872046
1	380	345.376337054891	41.798095621396
1	382	345.550707205865	39.876809280946
1	384	346.985164983924	38.818764697601
1	386	350.100961361978	35.14555033734
1	388	350.215439399646	34.967269835818
1	390	351.369589445551	25.016763463482
1	392	353.756827030765	19.992425353771
1	394	356.191968770701	21.03135840061
1	396	357.922594078224	21.39078348083
1	398	361.752563401692	23.98955966519
1	400	363.494634901038	22.723689067674
1	405	372.567748482705	2.122001548238
1	410	387.806459069518	3.487390052752
1	415	397.662678405058	6.191546590154
1	423	400.210142389401	1.584989318919
1	425	413.510596593666	14.242252640028
1	436	421.027052561371	6.213941831266
1	438	421.546274742161	5.277521727069
1	449	429.299183664762	10.189971436686
1	454	431.348881209129	8.181648804935
1	456	431.638022633041	5.327051525141
1	458	436.350989812867	7.111166581233
1	466	441.829172614639	10.639532019548
1	474	448.475396260731	11.767698544379
1	476	454.266243398383	14.044694683921
1	484	460.057599679947	16.844708623331
1	486	462.543181538219	19.021493976803
1	488	463.508625782887	7.767698065196
1	493	470.048729425805	10.299467464544
1	495	470.906523837113	4.436897034863
1	506	479.899938039868	5.339626125939
1	508	483.310856032075	8.058448582593
1	513	485.910037675834	6.276890417251
1	518	490.521212281954	4.920874253953
1	520	492.608674392213	5.260213492552
1	525	499.224214812134	1.547182756446
1	536	507.443689654072	7.589335066297
1	544	522.090476140938	17.015507933762
1	549	527.143697878382	21.387556435959
1	551	527.671472965712	18.130973951126
1	577	541.497956501332	20.629716546892
1	582	542.837147887273	16.462537515035
1	587	555.457073667984	27.071777777147
1	589	556.595755791051	22.630945971328
1	591	557.867600314203	22.08164619473
1	596	565.048451129025	28.399386668952
1	598	577.561459427108	40.203454080977
1	609	585.06499559891	46.537823095619
1	614	592.26054389088	53.110768190863
1	616	592.341301639111	51.088510017153
1	618	594.310036140003	51.654434454232
1	620	595.731301015523	42.300883686804
1	628	602.70147546893	42.942796464299
1	630	606.918675286704	29.060945233685
1	635	611.184616284382	29.496425859159
1	637	616.592518492603	33.293411579008
1	645	619.268892229816	32.90336703436
1	647	622.188570721966	26.242944583331
1	670	643.00136177138	43.1787691524
1	672	644.308043923635	36.973264026172
1	674	644.717086406018	26.507585430929
1	676	649.666512697001	30.460506902088
1	678	656.823805255361	25.312862317096
1	680	658.567665840755	25.792207359254
1	685	663.744142852481	29.712768490041
1	696	678.316285495963	42.698520909593
1	701	680.726922776083	41.064194075219
1	706	688.69450233346	46.886586892042
1	711	692.261216770311	49.566399200942
1	713	695.067345147682	34.166486530147
1	715	697.181015757164	27.468610578435
1	723	702.447005210643	32.567703777098
1	725	705.572813146777	33.625212524137
1	727	708.331737940963	28.297269368008
1	732	711.029192719244	28.226338718851
1	734	714.865286385945	24.779651261017
1	736	715.356481222483	16.445736180368
1	738	716.308677469937	14.867485880626
1	740	716.436779829155	5.93770755381
1	751	728.095423239725	5.526297478383
1	759	744.246858596897	18.388662308716
1	764	749.079054021823	22.353060940929
1	766	749.239642663942	13.643288495194
1	768	749.318240681344	7.562859840945
1	773	757.017629014689	8.564885090866
1	778	762.649446857472	11.932684894838
1	780	771.170884130156	13.674617092162
1	785	789.855631969818	5.102819304565
1	793	800.996095760216	4.871564262831
1	795	804.633377865717	8.427731562712
1	800	812.236673862922	2.1972154117
1	808	820.475169052232	0.591852874759
1	813	823.759015621985	3.412050088254
1	815	825.086321000677	3.923365278592
1	823	845.469894580991	1.53508161134
1	825	847.15504457653	2.438209858476
1	830	853.472482260545	1.061157092481
1	835	856.489035126541	0.581122292771
1	840	870.37061131688	1.534197914002
1	845	875.481137744202	2.79394318384
1	850	887.456574693685	4.076031103964
1	855	890.724016675982	2.987205126889
1	860	898.779109914183	6.312065952273
1	865	903.832407848558	2.942487638865
1	879	911.896633865401	6.090949072497
1	887	918.544128755825	12.561824799146
1	889	919.585798036145	12.308538529939
1	891	924.092935035661	14.587395379821
1	893	924.339833041168	11.460332812348
1	898	929.665593664887	15.56158027391
1	903	937.642891887992	11.317638292155
1	908	940.66554431058	3.0834896408
1	913	946.52367319579	8.239418149788
1	915	948.167929345814	4.120990356346
1	920	963.202988845486	2.003112682625
1	925	973.195284376886	0.801028684421
1	930	979.056825459238	4.311729721195
1	935	986.442189419904	3.046950047465
1	946	1006.684840685874	7.773370638529
1	951	1015.284961901289	12.057606693661
1	953	1023.836321024655	18.581793327805
1	955	1024.741484890785	12.933656028944
1	960	1035.228456240803	7.61029451232
1	965	1048.490472810153	0.066467662335
1	970	1063.851463737332	8.856384185135
1	975	1073.04197400483	1.293161048377
1	983	1078.821649793564	5.52543613926
1	985	1079.130520221594	1.676983486046
1	996	1098.710241619741	16.318347559602
1	998	1104.775023671481	21.949969195414
1	1003	1107.490797773518	20.601196094927
1	1014	1118.380131593592	11.597038179136
1	1016	1120.30567940482	9.046698821794
1	1018	1121.2579955158	5.242517160271
1	1023	1123.138474283868	5.691392764145
1	1025	1126.599469094277	4.262818220826
1	1030	1133.365323231287	2.725033821519
1	1038	1149.80884626908	16.178220525202
1	1040	1152.616842880299	18.410900132787
1	1045	1158.298924202997	3.924740775462
1	1050	1161.360669293391	1.176662216952
1	1055	1172.032048514443	6.541346633529
1	1069	1195.330967649844	7.265404763074
1	1074	1197.279169110345	5.218873472543
1	1079	1202.107380242388	8.967542415185
1	1084	1209.20795922625	15.825159973345
1	1089	1220.381701378899	25.038718320181
1	1100	1222.995370356845	25.260498377845
1	1102	1223.867891102673	16.220186621119
1	1104	1224.36089868369	7.794893093038
1	1109	1225.968661746151	5.498247015962
1	1117	1230.900687948851	10.160002600734
1	1119	1231.804878144588	10.518382127415
1	1124	1239.701327511387	14.460553825321
1	1132	1244.855585436801	16.584767350766
1	1143	1250.630671319755	22.02053934122
1	1145	1256.950612995748	23.05482756132
1	1150	1258.865099781517	18.291989224773
1	1152	1260.326486519429	19.440653996841
1	1154	1264.30973064366	18.777527352212
1	1159	1266.163958839217	20.211791508337
1	1161	1267.836069235714	17.418592102776
1	1166	1269.426630951688	11.436557253605
1	1177	1275.274826865858	9.196829415133
1	1182	1277.922662846038	8.848138495963
1	1184	1278.465281757205	6.148896044494
1	1192	1294.706646855116	22.270962109719
1	1194	1294.858096406153	19.769013883357
1	1196	1297.325997657962	19.68498914616
1	1201	1300.817197721614	18.897699859246
1	1209	1310.697819264796	17.048511690308
1	1214	1312.009153163075	12.541495844076
1	1216	1314.939668617733	11.645414164925
1	1218	1320.091125992321	15.974514156526
1	1229	1336.01414875	25.238591023953
1	1231	1336.189403569616	12.009019814361
1	1233	1340.204768064214	9.693340961536
1	1235	1340.278808296774	7.539472171265
1	1240	1346.960722291601	2.106351689037
1	1245	1352.239631533837	2.602815946444
1	1253	1357.492340430054	5.031016108206
1	1255	1359.689900922154	4.892468682206
1	1278	1369.517624522709	8.90477753036
1	1283	1382.1715708092	21.405762981875
1	1285	1383.022615379311	18.204409815216
1	1293	1389.636258573224	24.286001700648
1	1295	1393.271916696088	27.654298170757
1	1306	1402.955303812172	36.366622443437
1	1308	1404.393092770177	35.044616174495
1	1310	1414.181951493429	43.560241136966
1	1315	1422.074344793376	37.045621669979
1	1317	1422.704631328477	37.385687271548
1	1319	1423.907384987268	30.598822571625
1	1321	1423.913794935195	26.889724078369
1	1326	1428.9712083804	31.508285960901
1	1331	1431.327459766287	16.974102287319
1	1336	1433.137431757576	4.409314289869
1	1338	1434.173156815642	3.823989036362
1	1340	1440.611872315361	8.004635780215
1	1345	1446.231114615678	1.074716488313
1	1356	1467.858130963674	15.96428685281
1	1364	1482.051205128665	28.035963630172
1	1366	1483.125955621781	17.358690604335
1	1368	1485.676970296183	12.851950727635
1	1373	1487.589017430929	8.63563069492
1	1378	1490.391207944911	4.036479730377
1	1383	1497.610843207523	8.301997482695
1	1385	1500.451726452824	3.151854953539
1	1390	1507.483097346206	2.237093639319
1	1398	1520.382832863136	4.762372349972
1	1400	1522.703850273196	2.839663031848
1	1408	1534.012481714761	4.578951947263
1	1410	1536.528580432718	6.903047423643
1	1421	1571.951408307413	12.401313013222
1	1423	1577.150955819896	15.411829923522
1	1431	1589.616506838119	19.644096276868
1	1433	1590.201920487624	11.326134344886
1	1435	1590.310507392737	8.466792780445
1	1440	1605.428712845117	0.563379400184
1	1445	1615.732966858647	3.940353865903
1	1456	1623.577820352231	7.488962042775
1	1458	1625.14171039746	8.250691450838
1	1460	1627.515156000492	5.453056618467
1	1465	1648.539197586346	0.963617874666
1	1470	1651.982232281877	1.360190003337
1	1475	1655.385646458243	2.715141083591
1	1480	1665.314442521714	4.405144739796
1	1485	1685.238113015192	7.336827658888
1	1490	1699.328205978171	0.105778303019
1	1504	1721.830152570257	13.62106537578
1	1509	1747.418166141727	36.034867582643
1	1517	1752.047736277183	39.299817143263
1	1519	1752.701219415452	34.674937660844
1	1521	1756.20257888336	21.057178380062
1	1529	1775.562879877601	26.82379633611
1	1531	1777.063848663754	26.927969287844
1	1542	1788.797683989997	17.194606785844
1	1544	1795.325266561574	23.151885930538
1	1546	1797.366118073532	18.018008238994
1	1548	1797.958640166243	14.680195351831
1	1553	1799.103896005855	15.174405398501
1	1555	1801.1214685743	2.681816814548
1	1563	1805.505163528983	3.048900766052
1	1565	1807.442133582882	2.435418685975
1	1585	1824.957046435702	14.643010288479
1	1590	1825.764354340027	6.999342472362
1	1595	1826.541436516368	6.470689071864
1	1597	1829.357605448638	7.764415859774
1	1599	1830.475077404574	8.562849778228
1	1601	1830.745117073256	7.897321441313
1	1603	1843.410446632808	18.424141162483
1	1605	1846.352449836218	20.301580565281
1	1610	1848.043468171659	0.31132758318
1	1615	1866.074113529547	8.948672190731
1	1620	1883.763835431329	3.178101677978
1	1631	1895.786169490904	7.893378009128
1	1633	1899.127698744194	10.578611568053
1	1647	1927.722545697999	39.07980397743
1	1649	1928.325131484041	27.252725716715
1	1651	1934.634884624749	19.661074746797
1	1653	1938.668034793354	23.163899848877
1	1658	1941.921400591425	23.340031858843
1	1660	1944.645742240138	5.680806565398
1	1665	1966.068808484482	2.757040107756
1	1670	1972.710683140178	3.37049526241
1	1675	1988.064292145061	3.999045548532
1	1680	1996.648606245464	3.2791191832
1	1688	2002.571354276397	2.988913733257
1	1690	2005.135999250241	3.028973705862
1	1695	2011.369183686744	5.24828622296
1	1700	2017.259882311554	3.539251563037
1	1714	2032.606013162948	12.034130659018
1	1719	2033.288412815136	6.186692922965
1	1721	2037.473219425649	8.993263799809
1	1723	2039.714836919986	8.781179525483
1	1725	2043.796162884073	10.593236060862
1	1739	2058.73409751517	14.661285434012
1	1741	2074.683396373097	26.635983150757
1	1743	2075.074637945078	19.668658169085
1	1751	2079.733278857655	21.046300198605
1	1753	2079.984009610407	2.985396523706
1	1764	2091.089867355492	13.659634938343
1	1769	2096.949707852215	16.955027721102
1	1777	2112.00449026866	28.038594031006
1	1779	2112.911142367462	24.182507794041
1	1781	2113.037628692119	19.745559980412
1	1783	2113.866081859512	11.685273052425
1	1785	2116.489197270372	9.437276885439
1	1793	2139.781474888574	8.168214132373
1	1798	2145.405452099266	9.300769630734
1	1800	2148.910771511858	8.720787496258
1	1805	2156.913890766306	6.445353739392
1	1810	2166.405117254292	3.451785855573
1	1821	2198.535284136566	15.049613064561
1	1823	2201.535070435658	14.137594655165
1	1828	2202.785896749974	15.166442433388
1	1830	2205.921389035719	3.314692217315
1	1838	2213.543076508116	4.352604765237
1	1840	2219.924511748998	6.828174983182
1	1845	2221.950330309011	0.672486607873
1	1850	2233.832078710788	4.036076711993
1	1858	2238.341192144129	3.050925813243
1	1863	2239.271290806641	3.473214554678
1	1868	2240.520695437029	1.964435340509
1	1870	2245.750358614223	5.721984177037
1	1876	2248.463993434449	1.984597554945
