version 2
run Testbench_1-232-20170516-19:18:02-52636
attr configname Testbench_1
attr datetime 20170516-19:18:02
attr experiment Testbench_1
attr inifile omnetpp.ini
attr iterationvars $0=75
attr iterationvars2 "$0=75, $repetition=32"
attr measurement $0=75
attr network Toll_road
attr processid 52636
attr repetition 32
attr replication #32
attr resultdir results
attr runnumber 232
attr seedset 232
param **.numBooths 3
param **.queue[*].serviceTime exponential(5.11s)
param **.source.interArrivalTime exponential(5.854s)
param **.source.numJobs 1000

vector 0  Toll_road.queue[0]  jobsProcessed:vector  ETV
attr interpolationmode  none
attr source  queueingTime
attr title  "jobs processed, vector"
vector 1  Toll_road.sink  lifeTime:vector  ETV
attr interpolationmode  none
attr title  "lifetime of arrived jobs, vector"
attr unit  s
0	3	2.319080182529	0
0	8	11.19812746697	0
0	15	16.597000019394	4.483150990693
0	17	20.09336966456	4.231042745821
0	31	29.715364860258	9.112762286283
0	48	40.68392597469	19.931382949441
0	50	43.521561360346	22.682543971334
0	58	47.652123696685	21.996105188398
0	60	53.867123036303	21.790058426514
0	62	63.82710017833	30.510116934998
0	70	75.133379366776	40.386083684128
0	75	77.707758104842	42.442584729751
0	80	81.418431958713	40.740059800185
0	82	81.667777876854	36.448243821406
0	84	84.400107800773	37.78983982795
0	86	86.931325269143	22.982175441685
0	88	87.171783695412	13.488342435114
0	111	102.355142237501	27.18859308238
0	116	104.415704244705	23.087396465055
0	118	104.699474377666	16.812459298095
0	120	109.017651073272	21.09641351495
0	125	111.478968953677	19.504248025148
0	130	120.090927271923	26.979637973275
0	138	127.68257007871	30.515393366508
0	143	133.185379230595	32.256837391575
0	145	135.029539713023	32.883809776342
0	156	138.300313817936	34.218010036898
0	158	142.332847422287	32.067248039949
0	160	143.617870086611	31.796013975875
0	162	147.016948512018	25.555099648791
0	167	154.194604201951	27.154777969796
0	169	156.906414150197	24.124733235649
0	171	158.035943873919	22.06698772143
0	179	166.035934639877	29.478364637551
0	181	168.582822931748	31.760179160746
0	183	171.247499263993	17.849702014674
0	185	174.292495390611	13.5699710772
0	187	175.299417795647	9.506167005711
0	193	183.755341911552	0
0	198	190.833847751722	0
0	202	193.269000041799	2.000023810692
0	207	195.582301788178	0.620725153703
0	215	207.291887246492	7.395524159177
0	217	208.689946052517	6.845005916585
0	223	215.19569310429	0
0	228	221.315656224812	0
0	233	226.803706319337	0
0	237	249.612519501658	19.343587527565
0	242	254.492976569494	1.39966246913
0	250	270.111488560551	12.935509729832
0	264	278.780385508565	15.051340804218
0	266	284.533852715455	14.272506540059
0	277	289.363424777447	16.173598910223
0	285	292.733645041006	16.142111172702
0	290	300.042335799304	21.619006116543
0	292	307.763616061378	21.385659616479
0	294	310.176499642951	23.417187475499
0	296	316.293476372398	28.672769940752
0	304	335.222812245629	45.127351990991
0	306	336.010789718544	44.213101704661
0	308	341.697813963921	47.84830197595
0	310	350.97651603906	33.295178787315
0	315	357.889375374319	24.759362640992
0	323	364.197051614335	12.264027769845
0	325	366.249412879115	4.881992178523
0	333	373.317478213943	9.35514854759
0	335	373.841284324872	4.638758784461
0	337	378.644269174465	8.87079078178
0	343	382.815389256737	0
0	348	395.945082266488	0
0	358	407.486927434645	11.538361840991
0	363	409.05955600912	4.887854816445
0	365	409.093328960266	2.808301935897
0	371	419.746540823867	12.131407184068
0	373	419.800607813993	3.507514747246
1	5	7.457806830913	5.138726648384
1	16	16.597000019394	5.398872552424
1	18	20.09336966456	7.979520635859
1	32	29.715364860258	13.853037941519
1	49	40.68392597469	20.081323400715
1	51	43.521561360346	22.769018335097
1	59	47.652123696685	26.813106307673
1	61	53.867123036303	28.211104528016
1	63	63.82710017833	31.750035568541
1	71	75.133379366776	41.816396123444
1	76	77.707758104842	42.960462422194
1	81	81.418431958713	46.153258583622
1	83	81.667777876854	40.989405718326
1	85	84.400107800773	39.180573745325
1	87	86.931325269143	40.32105729632
1	89	87.171783695412	23.222633867954
1	112	102.355142237501	28.671700977203
1	117	104.415704244705	29.249155089584
1	119	104.699474377666	23.371166598016
1	121	109.017651073272	21.130635993701
1	126	111.478968953677	23.557731395355
1	131	120.090927271923	28.116206343394
1	139	127.68257007871	34.571280780062
1	144	133.185379230595	36.018202518393
1	146	135.029539713023	34.100997874003
1	157	138.300313817936	36.154583881255
1	159	142.332847422287	38.250543641249
1	161	143.617870086611	33.352270704273
1	163	147.016948512018	35.195092401282
1	168	154.194604201951	32.732755338724
1	170	156.906414150197	29.866587918042
1	172	158.035943873919	25.254262959371
1	180	166.035934639877	30.066978487388
1	182	168.582822931748	32.025252929422
1	184	171.247499263993	34.424855492991
1	186	174.292495390611	20.894698141292
1	188	175.299417795647	14.576893482236
1	190	177.575003355513	11.781752565577
1	195	183.901217103971	0.145875192419
1	203	193.269000041799	2.435152290077
1	208	195.582301788178	4.313325557071
1	216	207.291887246492	12.330310612017
1	218	208.689946052517	8.793582965202
1	220	211.099145108369	9.254204972437
1	225	217.137202033641	1.941508929351
1	230	223.968645611195	2.652989386383
1	238	249.612519501658	22.808813182321
1	243	254.492976569494	24.224044595401
1	251	270.111488560551	17.018174460187
1	265	278.780385508565	21.604406677846
1	267	284.533852715455	20.804808011108
1	278	289.363424777447	19.102078602051
1	286	292.733645041006	19.543819173782
1	291	300.042335799304	23.450801931
1	293	307.763616061378	29.340286378617
1	295	310.176499642951	23.798543198052
1	297	316.293476372398	29.534164204946
1	305	335.222812245629	47.602105813983
1	307	336.010789718544	45.915329463906
1	309	341.697813963921	49.900125950038
1	311	350.97651603906	57.127004051089
1	316	357.889375374319	40.208038122574
1	324	364.197051614335	31.067038881008
1	326	366.249412879115	14.316389034625
1	334	373.317478213943	11.950057513351
1	336	373.841284324872	9.878954658519
1	338	378.644269174465	9.441743634054
1	340	380.581932833068	10.808454440383
1	345	385.796595111046	2.981205854309
1	359	407.486927434645	11.541845168157
1	364	409.05955600912	13.110990415466
1	366	409.093328960266	4.921627767591
1	372	419.746540823867	13.461513799498
1	374	419.800607813993	12.185474174194
1	376	429.343968941977	13.05087587523
