version 2
run Testbench_2-56-20170508-12:31:10-124752
attr configname Testbench_2
attr datetime 20170508-12:31:10
attr experiment Testbench_2
attr inifile omnetpp.ini
attr iterationvars ""
attr iterationvars2 $repetition=56
attr measurement ""
attr network Toll_road
attr processid 124752
attr repetition 56
attr replication #56
attr resultdir results
attr runnumber 56
attr seedset 56
param **.numBooths 3
param **.queue[*].serviceTime exponential(5.11s)
param **.source.interArrivalTime exponential(5.854s)
param **.source.numJobs 1000

vector 0  Toll_road.queue[0]  jobsProcessed:vector  ETV
attr interpolationmode  none
attr source  queueingTime
attr title  "jobs processed, vector"
vector 2  Toll_road.queue[2]  jobsProcessed:vector  ETV
attr interpolationmode  none
attr source  queueingTime
attr title  "jobs processed, vector"
vector 3  Toll_road.sink  lifeTime:vector  ETV
attr interpolationmode  none
attr title  "lifetime of arrived jobs, vector"
attr unit  s
vector 1  Toll_road.queue[1]  jobsProcessed:vector  ETV
attr interpolationmode  none
attr source  queueingTime
attr title  "jobs processed, vector"
0	3	24.27788411301	0
0	53	90.343559484294	0
0	76	118.29653813608	0
0	87	124.979059897146	1.801907341451
0	111	173.922793061876	0
0	123	194.898847175075	0
0	128	203.926503026858	0
0	133	213.823221741252	0
0	137	220.953241820999	5.373251193956
0	166	249.71068928943	0
0	176	252.878723674167	0
0	182	260.646347260289	0.030209256871
0	193	280.710957409526	0
0	225	305.959092325223	22.558754839624
0	230	309.791792517299	25.856961303293
0	238	322.859088622748	14.125349409931
0	245	329.88967759292	15.982193099122
0	247	329.942258454297	9.13936103082
0	288	373.741462109456	0
0	303	393.29878725843	0
0	324	405.580833075623	0
0	340	416.753919546175	3.968956450503
0	356	445.86247724628	0
0	371	466.039858192207	0
0	390	489.214156856793	0
0	394	494.617204573786	4.440801306908
0	420	518.719702835403	14.965801759825
0	443	535.154966506332	0
0	466	583.742276646594	0
0	473	587.612233302173	0
0	477	589.33098147643	0.702315185264
0	506	624.006080137318	0
0	515	630.372105077341	5.968235529067
0	538	654.435400964008	0
0	561	674.606048683571	0
0	608	750.947626133028	0
0	618	761.811548760668	2.905186690595
0	627	765.519503639989	6.538030223552
0	633	770.581091521947	0
0	640	776.122128046299	3.808271337643
0	645	778.543589582333	2.4806226603
0	673	816.012848098801	0
0	693	835.074344272394	10.203882017579
0	695	835.180482211833	0.368889782417
0	703	836.43081772263	0.768637664198
0	738	868.13261714724	0
0	745	876.852152283468	6.592930061819
0	773	927.582384831764	0
0	788	938.049841828701	9.99665357486
0	790	938.098432000438	1.289370336678
0	798	945.8920987314	5.110271979876
0	806	951.524515207199	0
0	824	974.565887421886	0
0	831	978.411222115824	0
0	843	989.750203638789	0
0	873	1020.370287122652	0
0	901	1038.266997283299	0
0	921	1060.381324227518	0
0	936	1082.921773370755	0
0	956	1130.572178572765	0
0	968	1155.660173553836	0
0	993	1175.851028898887	0
0	998	1180.960707034728	0
0	1033	1220.778347396596	0
0	1045	1224.187801545352	2.116808825161
0	1047	1224.616650057575	2.190223037939
0	1063	1249.210803126438	0
0	1068	1251.60510593849	0
0	1088	1298.878173669464	0
0	1093	1302.680782508897	0
0	1103	1315.577373245553	6.131517744687
0	1111	1320.724150195198	6.930502856834
0	1125	1327.656188914767	7.103232181009
0	1127	1330.692723175607	5.676820659942
0	1133	1350.883592703271	0
0	1138	1391.544469700774	0
0	1142	1397.846859170041	4.875095993973
0	1163	1429.795831826628	0
0	1167	1434.083140400823	0.304623637695
0	1175	1437.853889291398	0.381253357182
0	1177	1440.200871473983	2.615615377712
0	1188	1444.02162923211	0
0	1193	1468.831108290395	0
0	1213	1492.702000924454	0
0	1226	1500.166606416107	0
0	1238	1513.854108265939	0
0	1274	1541.748220806749	0
0	1286	1555.184368539018	0
0	1293	1560.041007916626	0
0	1297	1560.781379645435	0.511355848889
0	1311	1569.302515562146	0
0	1323	1597.694038548818	0
0	1333	1617.953929266908	0
0	1340	1627.848115643148	0.755469586528
0	1348	1631.439000550124	0
0	1390	1672.991276956034	0
0	1411	1689.755624370409	0
0	1418	1697.741057730617	0
0	1429	1704.231488934063	0
0	1451	1716.379387183586	0
0	1469	1731.841550660576	0.931455949362
0	1491	1750.108555933822	0
0	1497	1760.844619962007	10.700970764429
0	1505	1767.434979568261	1.38030516267
0	1531	1791.441946481942	23.127491325497
0	1533	1793.368212356036	15.39375511931
0	1535	1797.746913224359	7.04117681095
0	1598	1852.452412632092	0
0	1613	1875.47224514475	0
0	1637	1897.804489145463	0
0	1647	1913.759099971475	0
0	1666	1944.506149833976	0
0	1678	1958.150545268915	0
0	1688	1961.702679390149	0.429753546558
0	1711	2003.26793642988	0
0	1726	2016.846238668756	0
0	1735	2026.357512582061	2.037135575239
0	1753	2045.505970246691	20.103200803763
0	1764	2056.519089517737	22.260178943594
0	1774	2068.986858882757	33.949516641126
0	1782	2077.395070953464	25.725821479764
0	1784	2079.586790512847	23.963598980405
0	1786	2080.166938122834	12.982618257318
0	1788	2081.186222131196	13.908505748239
0	1805	2090.472133914301	15.133731051747
0	1812	2100.128361278757	16.455783867995
0	1825	2103.48987257681	2.862833848543
0	1827	2105.569412405923	4.834933171064
0	1891	2167.659738853596	0
0	1907	2185.171387089565	8.222776339836
0	1916	2197.994537230618	0
0	1922	2199.372373167899	0.86005451046
0	1928	2201.374573298253	0
0	1933	2219.374446298866	0
0	1966	2252.1004191921	0
0	1978	2261.948045984548	0
0	1993	2274.316077932474	0
0	1998	2281.558188041473	0
0	2006	2301.00955246559	0
0	2012	2309.859547325512	4.677568616105
0	2033	2332.036910892032	0
0	2045	2337.549169420276	0.060280043324
0	2068	2359.373005674405	0
0	2084	2377.356051088332	0
0	2096	2385.693004519772	8.050323857051
0	2106	2391.50875092532	0
0	2112	2401.211293199053	3.474912758812
0	2122	2409.696037822504	2.201084393592
0	2132	2422.562572694885	12.216566103197
0	2142	2429.948713063836	1.98928848161
0	2156	2438.747639490888	0
0	2175	2447.60023973903	7.411089743987
0	2177	2447.755827943456	5.71505906177
0	2194	2467.079035069313	0
0	2213	2509.197765387042	0
0	2218	2510.361419606762	0
0	2252	2537.363264805253	0
0	2306	2602.448551527349	0
0	2316	2609.164179639558	0
0	2324	2614.417048085253	0
0	2351	2634.329811865873	0
0	2376	2661.196375783702	0
0	2387	2664.83143823444	1.41587120341
0	2421	2692.261181336997	0
0	2429	2695.732952433307	0
0	2433	2698.535095055418	0.218811073201
0	2439	2703.800673484551	0
0	2471	2748.645973836074	0
0	2479	2757.133119452726	0
0	2519	2789.555492220996	0
0	2528	2792.364368142596	0
0	2536	2802.536096318961	0
0	2549	2813.547314813278	0
0	2566	2830.036589308887	0
0	2588	2846.516716421736	15.647438571456
0	2616	2882.544140143143	0
0	2623	2892.572306369501	0
0	2627	2893.879215032964	0.101221092208
0	2636	2896.522954132886	0
0	2660	2923.440964140192	0
0	2667	2928.337567185599	2.023282646277
0	2685	2936.659144426149	0
0	2715	2954.577090803533	0
0	2733	2976.625255731298	0
0	2763	3027.926535413769	0
0	2773	3044.490329525217	0
0	2778	3052.841944494036	0
0	2808	3087.314830022218	0
0	2873	3230.715014713347	0
0	2904	3265.690292445973	0
0	2913	3281.796347814764	0
0	2938	3318.162588108987	0
0	2948	3330.355228798091	0
0	2955	3337.182420096386	1.297953611008
0	2973	3343.589780368406	0
0	2983	3351.856666086587	6.977147115778
0	2998	3362.857124950844	0
0	3013	3412.524258030764	0
0	3023	3424.327316185593	0
0	3028	3434.960978027123	0
0	3062	3469.811866775895	0
0	3069	3476.608494440967	0
0	3078	3482.726461320805	0
0	3106	3519.110163247327	0
0	3118	3536.831372373089	0
0	3128	3546.983630755597	0
0	3138	3558.423769316756	0
0	3148	3567.53106300669	0
0	3153	3571.334450750107	0
0	3166	3584.86776494547	0
0	3178	3610.123843460313	0
0	3185	3618.697679733961	4.106964218243
0	3198	3632.838689596381	14.261299119392
0	3200	3633.554335565233	3.975271160574
0	3223	3674.15365033299	0
0	3228	3677.174922412493	0
0	3238	3707.429765053341	0
0	3247	3710.655699255564	2.937810374876
0	3258	3722.625424447682	0
0	3263	3733.97808171422	0
0	3274	3745.702186195762	0
0	3304	3769.75216529178	0
0	3318	3789.87096769679	0
0	3326	3799.7379501122	0
0	3353	3819.691426630362	0
0	3358	3826.886886444003	0
0	3381	3861.897730203287	0
0	3388	3864.851096530155	0
0	3395	3882.424601177065	7.619547938957
0	3443	3926.499777355711	20.847240420103
0	3457	3936.247768116016	5.918393881626
0	3463	3937.147883530171	0
0	3473	3949.908122675027	0
0	3523	3989.666478780956	0
0	3588	4066.33796098287	0
0	3614	4080.706673120418	0
0	3658	4126.625284526734	0
0	3678	4146.272658478585	0
0	3683	4152.412724194328	0
0	3688	4159.424535497323	0
0	3707	4167.367800150375	7.929253110115
0	3715	4172.145326540669	2.493444147146
0	3721	4184.310529777506	0
0	3741	4209.06967342584	0
0	3752	4220.58471067812	3.534057679991
0	3761	4228.637313866049	0
0	3778	4257.98019873978	0
0	3782	4259.712901550332	1.398103181292
0	3826	4290.275713638413	0
0	3836	4306.680479388453	0
0	3851	4343.172683947853	0
0	3868	4377.735261814118	0
0	3876	4400.125569052388	0
0	3906	4429.782349426653	0
0	3925	4445.577658222064	0
0	3938	4460.500682628117	5.506126717205
0	3973	4508.814521473935	0
0	4001	4566.102537981898	0
0	4031	4622.470841440191	0
0	4058	4656.96264875044	0
0	4068	4667.273354414149	0
0	4111	4743.011009367731	0
0	4123	4783.164614995498	0
0	4128	4799.037387653352	0
0	4159	4833.254854539165	0
0	4198	4891.348208292288	0
0	4208	4904.569742935808	0
0	4226	4920.738983009451	0
0	4258	4974.360819141929	0
0	4268	4985.404309657577	0
0	4278	4993.185556002927	0
0	4283	5005.67168025163	0
0	4309	5055.120963594733	0
0	4321	5063.177100614251	6.478064608446
0	4334	5070.725500510019	0
0	4345	5080.187089228804	4.765757156019
0	4371	5116.343426911091	0
0	4378	5123.746099923257	0
0	4393	5130.864950655303	0
0	4448	5225.335002082021	0
0	4461	5243.082524961524	0
0	4501	5274.013040617466	0
0	4511	5281.155565411167	0
0	4550	5338.902270672443	0
0	4562	5355.911997185441	0
0	4572	5369.056400086503	0
0	4585	5380.569433625119	0
0	4669	5484.821436360988	0
0	4691	5526.579997589985	0
0	4741	5621.682856735232	0
0	4759	5644.927586243594	0
0	4773	5656.418875135818	0
0	4783	5669.588493358525	12.655302893779
0	4785	5674.829406104092	17.270594731475
0	4790	5683.589364166321	22.822551043672
0	4798	5687.572854135389	1.964998770697
0	4826	5710.304066946572	0
0	4851	5741.908574798797	0
0	4858	5744.585993849482	0
0	4870	5756.86774882071	4.175082696308
0	4878	5765.559392158708	0
0	4929	5849.507609229927	0
0	4938	5857.49496673845	3.330315095943
0	4964	5889.631049226967	0
0	4976	5897.241573397297	0
0	4993	5925.251839184023	0
0	4997	5926.865430606033	1.181325574215
0	5003	5939.182083534425	0
0	5018	5970.066315158503	0
0	5038	5988.761675453479	0
0	5045	5998.358370812827	5.025169531123
0	5066	6025.170249237377	0
0	5081	6052.929626409408	0
0	5088	6058.600967208645	0
0	5113	6105.652203599089	0
0	5117	6112.136991122636	0.760507948821
0	5126	6118.561330097749	0
0	5136	6124.972904808967	0
0	5140	6126.062029914641	0.824804460193
0	5156	6145.919641636049	0
0	5165	6160.678293759331	11.234968092205
0	5216	6232.673224394889	0
0	5223	6249.451717229132	0
0	5257	6299.332119305631	0
0	5276	6310.925939006099	0
0	5299	6325.856817541273	0
0	5331	6365.156660659964	0
0	5342	6368.569798468164	1.880155614475
0	5348	6376.754009312688	0
0	5355	6379.266637337099	1.883580882422
0	5360	6380.511786989938	0.140900101208
0	5383	6414.61852104045	0
0	5388	6421.768173442727	0
0	5401	6436.937307929303	0
0	5406	6447.333480252377	0
0	5414	6453.689159643373	0
0	5420	6461.006389212958	2.751517011562
0	5428	6463.683804727397	0
0	5432	6468.63706151457	3.118223063712
0	5443	6472.70442771302	0
0	5459	6486.482467356037	0
0	5483	6545.997937922003	0
0	5492	6563.207045399096	1.204461819625
0	5498	6575.588255905146	0
0	5503	6591.986429417774	0
0	5507	6598.389265675143	2.124681253135
0	5539	6631.900408045181	0
0	5561	6645.411736968572	0
0	5568	6661.515834150971	0
0	5593	6717.793472654552	0
0	5603	6731.247572916812	0
0	5610	6741.664835372998	6.829047413834
0	5637	6763.420355728959	23.703983757218
0	5645	6770.502371703544	4.662989599865
0	5647	6772.181933162151	3.439557932526
0	5701	6875.569171420756	0
0	5720	6888.316334324551	4.540944978624
0	5731	6890.655167361381	0
0	5743	6901.261805538917	0
0	5751	6918.161192317922	0
0	5786	6943.408926758618	0
0	5819	6974.278750266844	0
0	5848	7011.335603616109	0
0	5861	7026.231588022547	0
0	5870	7028.452091529255	1.07193025412
0	5878	7030.907543626378	0
0	5886	7040.255422706691	0
0	5895	7048.191079984415	3.335198186285
0	5902	7053.872304424061	2.310134277254
0	5926	7087.104073964832	0
0	5930	7090.209085059604	0.592750206718
0	5938	7093.575864212841	0
0	5946	7098.415611723435	0
0	5961	7111.386445354162	0
0	5969	7117.338822124928	0
0	5993	7137.413179634443	0
0	6010	7144.734153358853	6.286794162759
0	6025	7169.549953702836	29.50604528478
0	6035	7175.016790196602	9.984838004832
0	6037	7180.116890219474	6.052683427486
0	6051	7214.788713016314	0
0	6067	7217.312467334346	0
0	6089	7236.143282254076	0
0	6098	7242.543210250082	0
0	6102	7248.779942809184	0.157760072813
0	6113	7279.357253440204	0
0	6118	7292.541768097148	0
0	6131	7312.26184063554	0
0	6148	7326.607504576213	0
0	6157	7334.544061686313	1.399769785874
0	6168	7361.057678193359	0
0	6175	7368.827187563677	1.543180357756
0	6188	7381.680915363779	0
0	6206	7393.468590252384	0
0	6226	7400.633604647041	0
0	6233	7414.093911734063	0
0	6238	7425.575433053043	0
0	6298	7488.438270422716	0
0	6302	7492.317049537218	1.747668631737
0	6313	7505.117735378552	0
0	6333	7534.545292254049	0
0	6343	7539.114033698284	0
0	6347	7542.832645563171	3.272389754158
0	6388	7596.014492652816	0
0	6403	7618.15000179097	0
0	6413	7641.799812591738	0
0	6423	7658.121415128982	0
0	6438	7680.408749090637	0
0	6466	7714.994548295291	0
0	6490	7742.146382387935	0
0	6505	7754.024443734595	0
0	6519	7777.590860346395	0
0	6532	7795.822680680729	2.296961470761
0	6567	7817.228438469015	0
0	6584	7833.437706619443	0
0	6588	7835.586754856556	1.812927467206
0	6598	7849.545301123898	0
0	6622	7867.492030001665	0
0	6633	7880.39390894409	0
0	6638	7885.613979684833	0
0	6651	7929.833005671023	0
0	6661	7936.252469781936	0
0	6667	7947.907828883701	9.97427751899
0	6672	7958.07221462447	1.280784877522
0	6678	7963.673400013948	0
0	6699	7987.952709697906	0
0	6738	8021.845837033014	0
0	6747	8027.312628369771	1.148583202595
0	6752	8036.128539575011	2.494589582353
0	6766	8040.496399274938	0
0	6783	8052.034605509304	0
0	6791	8062.912202734816	0
0	6796	8075.948531435608	0
0	6808	8082.922658218361	3.73688176181
0	6836	8115.293447414238	0
0	6871	8158.899468863343	0
0	6885	8168.20522109684	1.255608073354
0	6896	8187.026859825773	0
0	6902	8196.070404386034	1.863339094822
0	6914	8207.361971012227	0
0	6919	8211.226750108023	0
0	6926	8213.39431220679	0
0	6933	8226.10788251769	0
0	6940	8233.209738549613	1.442628915946
0	6958	8248.690672198827	12.891121647061
0	6960	8248.744562542097	1.40720469461
0	6973	8256.851268641139	0
0	6981	8261.423391083738	0
0	6996	8271.134358550022	0
0	7008	8288.697383590565	0
0	7041	8329.185920322884	0
0	7054	8345.915166829134	0
0	7103	8416.24846023436	0
0	7110	8425.133795455619	1.629608988323
0	7128	8442.315291985379	0
0	7136	8454.762317834599	0
0	7201	8529.608301070649	0
0	7226	8546.10149802394	0
0	7233	8548.740124196919	0
0	7237	8551.536989364514	1.736321964006
0	7278	8591.306467067707	0
0	7286	8602.881661986286	0
0	7321	8642.342103850135	0
0	7327	8648.571278704747	1.367638969237
0	7332	8654.942701890965	1.2481800624
0	7366	8687.623097323807	0
0	7373	8703.014888329526	0
0	7383	8712.687278461123	0
0	7388	8722.656089961271	0
0	7396	8731.939874193318	0
0	7431	8749.371553774898	0
0	7461	8771.015852719231	0
0	7473	8788.146456813996	0
0	7496	8827.021435457537	0
0	7502	8831.515319022487	2.123932368795
0	7510	8841.176596276763	1.675799710567
0	7515	8841.400409915606	0.195889961271
0	7548	8917.163150388752	0
0	7558	8929.201948535007	0
0	7565	8939.009998100422	9.178372391376
0	7583	8952.672525348682	0
0	7592	8965.342313340982	2.222592721359
0	7606	8978.976745303705	0
0	7613	8996.886496798328	0
0	7653	9055.262411705239	0
0	7665	9065.7900583007	8.327764994815
0	7670	9070.522498976732	6.007760362255
0	7672	9074.117835029793	3.909435960133
0	7689	9085.459615264212	0
0	7697	9093.664214479882	0
0	7703	9099.817232202254	2.985446747151
0	7710	9104.307883148988	4.342691777172
0	7740	9141.560178957768	0
0	7761	9158.755544239004	0
0	7778	9178.243454415886	0
0	7793	9225.867042765452	0
0	7806	9239.249355841646	0
0	7824	9259.136524219463	0
0	7842	9283.670592109974	15.531171523345
0	7863	9321.232378678638	0
0	7871	9335.653670898485	0
0	7881	9352.917123377108	0
0	7909	9393.970798175023	0
0	7938	9435.45956357435	0
0	7943	9437.514668417299	0
0	7967	9459.284459137254	19.426535346898
0	7977	9464.708807613849	2.006341733878
0	8008	9491.941223006202	0
0	8018	9494.975981058281	0
0	8022	9498.46823171572	0.94535137838
0	8046	9518.95729970683	0
0	8053	9523.33603126784	0
0	8073	9550.963620092369	0
0	8094	9570.439593466242	0
0	8118	9612.467995866177	0
0	8132	9617.7911133451	0
0	8137	9630.920823637073	0
0	8157	9650.309886179197	8.277125327094
0	8169	9654.018763332442	0
0	8178	9666.635704881076	0
0	8188	9671.83330995691	0
0	8195	9683.554591229118	1.321534036984
0	8211	9698.537567241999	0
0	8236	9719.626424347686	0
0	8246	9725.152487289195	0
0	8254	9731.506355105186	0
0	8262	9741.83364134145	2.254768230105
0	8281	9755.061137518667	0
0	8290	9770.866173066445	15.149137654698
0	8292	9775.569668396132	14.279471748015
0	8313	9827.381668672961	0
0	8338	9846.726566852115	0
0	8345	9853.778576311448	3.396112416287
0	8378	9917.386855332946	0
0	8388	9930.909060703097	0
0	8393	9933.942140118179	0
0	8403	9966.46750988014	0
0	8424	9996.14875776354	0
0	8432	9999.186268703205	2.569496589745
0	8453	10019.911086588526	0
0	8496	10085.895509224208	0
0	8513	10093.165585918575	0
0	8526	10121.506920012042	0
0	8553	10155.849400674813	0
0	8561	10159.750829155332	0
0	8583	10181.04268204459	0
0	8611	10207.28551613567	0
0	8617	10215.551898702403	4.171445695824
0	8658	10334.361794710034	0
0	8699	10387.683569361564	0
0	8708	10396.475383114841	0
0	8722	10415.176737301344	0
0	8743	10441.657624920399	8.37853024832
0	8753	10448.162640373499	14.623558311527
0	8772	10469.199425702432	0
0	8810	10512.773319636359	0
0	8824	10526.354314640795	0
0	8844	10549.881682979213	0
0	8849	10560.517474516475	0
0	8862	10564.202120658707	0
0	8871	10571.219364165651	0
0	8889	10596.937270202323	0
0	8897	10600.264438433075	0
0	8924	10608.837273688343	0
0	8986	10672.762974371204	0
0	9001	10695.359033160589	0
0	9013	10739.414166095385	0
0	9058	10801.437673909484	0
0	9075	10814.093557359524	6.619536367128
0	9113	10842.341927389058	0
0	9117	10847.53526752285	2.413274441682
0	9144	10859.751289149913	11.683329733408
0	9149	10864.717985956954	12.855575434546
0	9159	10871.324053215705	19.426185493146
0	9161	10874.598302158225	22.669363899236
0	9163	10874.923995021442	19.640208074542
0	9165	10876.424084489441	13.11543759157
0	9172	10880.230863848546	13.732211200248
0	9182	10890.787982678483	1.121645545127
0	9187	10897.378463857847	4.300487483166
0	9201	10906.145035717125	7.835495372175
0	9222	10912.515745510929	0
0	9232	10915.31232751198	0.223638756481
0	9273	10957.532250394221	0
0	9280	10970.223846050569	8.123771098107
0	9286	10973.27863404013	0
0	9298	10984.999475150814	8.383134475569
0	9305	10993.468014875049	3.535210258948
0	9316	11008.203585567115	0
0	9333	11024.753853606962	0
0	9364	11065.738374134344	0
0	9408	11160.404431797238	0
0	9423	11174.87906977484	0
0	9428	11183.990412139103	0
0	9438	11208.718686294189	0
0	9448	11228.555612062566	0
0	9493	11296.969821051816	0
0	9501	11309.008542347768	0
0	9513	11316.41471329834	0
0	9517	11318.945590983672	2.170782489693
0	9522	11325.586292690418	3.167637765709
0	9531	11329.670134569662	0
0	9544	11354.73509844051	0
0	9552	11361.043330338091	1.093568262701
0	9573	11378.130454109679	0
0	9591	11395.246962229365	0
0	9613	11439.518213451526	0
0	9628	11461.039768516216	0
0	9643	11484.517040801776	0
0	9648	11496.250607130041	0
0	9652	11510.190019706578	9.12812129371
0	9678	11541.957847257988	0
0	9688	11549.892479707983	0
0	9708	11575.72493694344	0
0	9712	11582.354711256148	2.161125586984
0	9722	11583.970216617346	0.989674409093
0	9728	11593.493953248192	0
0	9733	11599.471510654683	0
0	9749	11607.957302607195	0
0	9761	11614.412060797553	0
0	9783	11671.268317839597	0
0	9787	11672.945579175208	0.650339058952
0	9798	11686.388740902626	0
0	9827	11709.818447422111	0
0	9853	11733.67465513057	0
0	9879	11759.113551854189	0
0	9888	11772.127208366445	0
0	9893	11786.458863408565	0
0	9898	11800.739077872383	0
0	9906	11815.336906019252	0
0	9926	11828.190566374601	0
0	9936	11830.644313441014	1.95848291325
0	9980	11867.362963328111	0
0	10009	11877.848751048002	0
0	10023	11883.557672769598	5.176124675764
0	10030	11887.373863849995	5.74773155108
0	10049	11899.174287038083	0
0	10064	11908.817032600102	0
0	10070	11912.16726939639	1.096262014043
0	10088	11946.770943464533	0
0	10093	11951.831873994758	0
0	10098	11956.712934286228	0
0	10107	11967.62971572005	5.512452294702
0	10115	11968.668816551547	0.123681512595
0	10125	11976.546940529082	6.353604126872
0	10127	11978.725973419984	4.924116184421
0	10138	11986.157199365537	3.906134387989
0	10140	11986.433264918033	0.344541814525
0	10156	12016.015898435376	0
0	10168	12035.860817446359	0
0	10181	12056.877882796347	0
0	10186	12061.753800842486	0
0	10191	12070.074082446057	0
0	10213	12104.270197778733	0
0	10218	12110.912680211044	0
0	10231	12141.131872625546	0
0	10241	12143.498677382176	0
0	10248	12152.735306887452	0
0	10261	12170.153927422959	0
0	10288	12233.247305026062	0
0	10303	12261.206711306823	0
0	10313	12298.419652875717	0
0	10321	12307.99599898784	0
0	10333	12329.546192929895	0
0	10348	12345.478248089276	0
0	10353	12355.429593924667	0
0	10368	12378.976894695215	0
0	10381	12395.427705193436	0
0	10388	12409.714881929624	0
0	10392	12425.165957685087	9.188144114443
0	10409	12430.545154102934	0
0	10419	12441.037060463653	0
0	10473	12501.939178674825	0
0	10483	12516.663252971741	0
0	10503	12546.784131466046	0
0	10507	12552.777708228407	5.225574766906
0	10518	12563.481112937952	0
0	10527	12572.250280713351	6.780953106643
0	10533	12581.439314653722	0
0	10558	12602.420849527443	0
0	10563	12611.930297477198	0
0	10599	12650.55673983426	0
0	10621	12680.235140923587	0
0	10656	12707.556466886405	0
0	10673	12728.42858516183	0
0	10678	12732.07301761816	0
0	10697	12752.634774599818	3.952125360164
0	10706	12761.594467657457	0
0	10718	12765.585275719653	1.417692557192
0	10727	12771.559091177622	0
0	10758	12804.65564610756	0
0	10762	12812.771068658588	2.169886698645
0	10778	12840.31013506667	0
0	10788	12852.956856401108	7.981305478484
0	10793	12858.250574269518	11.929719144985
0	10795	12858.816429550275	11.28836518309
0	10808	12867.352433549716	6.158970018039
0	10818	12879.996819397152	0
0	10838	12905.100294962043	0
0	10927	12967.067878443614	0
0	10977	13034.02429635818	0
0	10984	13041.889409906377	3.270616969071
0	11000	13059.190517962726	0
0	11013	13084.380519927435	0
0	11021	13099.823398070552	0
0	11043	13123.768388639765	0
0	11089	13178.367947524352	0
0	11095	13182.336010870254	2.371324294006
0	11105	13189.676854271805	2.744355250011
0	11113	13195.925762629303	4.374895241248
0	11131	13214.595887227976	22.22721211507
0	11149	13227.746788675765	24.56513059184
0	11151	13231.552782567677	18.863005984034
0	11160	13235.53832747838	15.642938068244
0	11165	13243.436229980942	23.076439258507
0	11176	13251.406973967781	0
0	11186	13252.981787982162	1.212102045435
0	11203	13269.515963162416	0
0	11223	13285.545460216194	0
0	11233	13330.32120780464	0
0	11242	13336.203044874914	1.615462804481
0	11253	13347.644131396824	0
0	11279	13386.519016607056	0
0	11285	13392.363452278572	1.454825171925
0	11291	13394.504885714447	0
0	11296	13404.744184832766	0
0	11303	13414.519987817272	0
0	11321	13426.452976471773	8.046069742949
0	11336	13447.11233806203	0
0	11351	13472.860026588897	0
0	11374	13508.418217058385	0
0	11396	13545.054471567589	0
0	11406	13556.373661504753	0
0	11413	13564.103408688826	0
0	11421	13572.319276213445	0
0	11444	13613.363236831003	0
0	11491	13678.466348964449	0
0	11498	13681.695868806172	0
0	11518	13703.074133820573	15.003748944973
0	11527	13713.390786203617	22.187000490645
0	11546	13723.62700739622	0
0	11553	13733.232311191178	0
0	11557	13736.227247854203	2.269690115109
0	11588	13787.132602780619	0
0	11608	13809.490697728697	0
0	11623	13816.171299551464	0
0	11639	13830.743250673248	0
0	11648	13836.307273173526	0
0	11653	13863.10573488443	0
0	11666	13879.816697912775	0
0	11700	13900.561187580852	0
0	11706	13902.390873566954	0.001032781034
0	11732	13917.407308618068	0
0	11741	13923.689040493052	0
0	11748	13928.859888934108	0
0	11788	13994.114683756819	0
0	11806	14029.094609635924	0
0	11831	14047.158902959747	0
0	11843	14084.239881504059	0
0	11855	14101.573324545523	2.543238476778
0	11883	14125.90872532719	0
0	11887	14138.642741405117	7.964761570131
0	11898	14154.215284680993	4.143095174902
0	11921	14173.686468900244	0
0	11961	14261.142757680331	0
0	11970	14265.253028701758	1.116295839407
0	11972	14267.123768597869	2.853784627996
0	11978	14291.328265385512	0
0	11982	14295.5007054335	2.289401707583
0	11987	14296.101708289274	0.114214832341
0	12011	14313.201967841577	0
0	12015	14313.376732168572	0.043413341573
0	12088	14365.735835309558	0
0	12097	14375.704692770938	8.276047414394
0	12115	14388.486387238612	12.224788477526
0	12129	14401.166991471653	0
0	12192	14497.621743663995	0
0	12218	14526.428853437847	0
0	12222	14528.104945321058	1.661034636881
0	12264	14593.385901498768	0
0	12283	14609.51680051467	0
0	12328	14672.849678715165	0
0	12341	14692.892984952961	0
0	12358	14739.685425803599	0
0	12365	14743.880859521871	2.727598279403
0	12367	14746.967891593875	4.90101488131
0	12373	14751.370155343508	0
0	12388	14786.951733977089	0
0	12417	14813.498229970394	0
0	12421	14816.32668383814	2.23950948433
0	12438	14827.548457868183	0
0	12445	14848.742624207139	2.522586434882
0	12450	14850.875700705147	0.95124249223
0	12458	14856.919824669981	3.750423136632
0	12463	14858.978354989728	4.129290303489
0	12473	14870.617272180101	0
0	12477	14873.574535389266	0.511376220245
0	12503	14911.182778607237	0
0	12542	14954.587071889394	0
0	12547	14954.932735868096	0
0	12552	14966.763226563106	0
0	12573	15001.323339587236	0
0	12578	15008.342956458493	0
0	12619	15112.670580446364	0
0	12626	15125.62902586635	0
0	12630	15127.17454511695	0.848317357813
0	12648	15180.751361650291	0
0	12652	15185.316347874955	0.224348907944
0	12663	15189.739479215908	3.342118704471
0	12669	15194.595723507188	0
0	12676	15199.7952858667	0.098679196301
0	12682	15210.490382345338	0
0	12701	15241.005660656967	0
0	12705	15242.749354905545	1.324215572925
0	12723	15248.753940905973	0
0	12746	15265.036961094302	0
0	12758	15276.319884010255	0
0	12763	15287.871649525127	0
0	12781	15295.658105658439	7.750688980648
0	12785	15306.646063052561	17.450285226897
0	12790	15312.714997305481	19.004268148052
0	12797	15319.708445121508	4.699122453654
0	12808	15332.586219990215	0
0	12856	15385.468433508908	0
0	12871	15393.210767585673	0
0	12878	15400.866214908565	0
0	12882	15406.257202364632	0.69972021348
0	12888	15415.841996157249	0
0	12904	15456.480812645248	0
0	12928	15483.366856831104	0
0	12950	15494.731313779562	0
0	12978	15521.563067889043	0
0	12986	15526.983210003232	0
0	13010	15561.500470646074	29.338133777299
0	13015	15562.406035254948	4.05230505446
0	13044	15572.56849066024	0
0	13059	15585.928790748118	12.701484775489
0	13061	15586.61797876544	2.664637015033
0	13075	15594.136871781028	2.327362035013
0	13077	15594.507710133925	2.434390728211
0	13083	15597.413709926116	0
0	13087	15602.628052212868	1.961229001635
0	13103	15626.096668656769	0
0	13113	15635.009947284759	0
0	13141	15659.358601108621	0
0	13158	15674.220848024279	0
0	13176	15699.544222229333	0
0	13196	15709.653242616009	8.688016901772
0	13201	15712.190180753796	10.426456478564
0	13213	15721.473831963761	16.516931572598
0	13218	15734.644845737167	22.794221091331
0	13225	15738.425640847637	20.434249095082
0	13249	15773.476311454469	0
0	13273	15798.204565991494	0
0	13304	15824.182949889665	0
0	13317	15836.132097975189	0
0	13333	15843.799575234216	0
0	13343	15854.612149472817	0
0	13353	15860.826976442427	0
0	13358	15865.719297635093	0
0	13363	15870.11019053634	0
0	13374	15875.07677819333	0
0	13394	15885.09417914401	0
0	13406	15898.040356840567	0
0	13413	15904.741786889747	0
0	13426	15921.697081631508	0
0	13431	15924.086087775831	0
0	13443	15933.052075635899	0.763249251626
0	13468	15954.335407184232	0
0	13473	15960.946864688636	0
0	13494	15994.345587847285	0
0	13508	16016.132622310796	0
0	13512	16019.817120384014	0.054236907468
0	13521	16046.266449923749	0
0	13527	16051.506703364115	0.342567288254
0	13548	16081.839058987952	0
0	13561	16087.044837698544	0
0	13578	16100.89151413415	0
0	13593	16118.624462188858	0
0	13613	16126.52620870724	0
0	13618	16140.851913017962	0
0	13625	16144.485785015923	1.067230408744
0	13638	16162.209523802231	0
0	13643	16193.309716824984	0
0	13653	16226.49841637054	0
0	13661	16243.130441950097	0
0	13668	16251.724782265363	0
0	13705	16276.021833596698	0
0	13728	16309.600170803716	0
0	13740	16312.680871719588	0.469239872954
0	13758	16319.625600342759	0
0	13783	16347.953397440414	0
0	13793	16367.761455867652	0
0	13834	16433.052547035881	0
0	13861	16469.588573742953	0
0	13872	16481.514233109628	8.951954323297
0	13894	16520.571975057744	0
0	13916	16559.381216081522	0
0	13921	16562.196418952758	0
0	13925	16569.072612838965	6.657271710586
0	13941	16583.460153139362	0
0	13981	16621.220689218986	0
0	13987	16633.979221913861	2.385196760428
0	14004	16647.918437728693	0
0	14009	16649.090946058293	0
0	14019	16654.020921645534	0
0	14025	16657.945597641918	1.686945263364
0	14042	16664.574593845561	3.821635988808
0	14050	16672.359077322616	1.731874611535
0	14078	16718.142286355527	0
0	14086	16726.220996080623	0
0	14101	16732.604966571458	0
0	14108	16755.276398027487	0
0	14112	16758.105409522914	0.342965555376
0	14128	16789.945026357681	0
0	14141	16797.897222880036	0
0	14151	16812.630788470904	0
0	14157	16821.754022170114	6.025023419432
0	14178	16850.710153539744	0
0	14183	16861.391192071628	0
0	14188	16863.597456546164	0
0	14198	16876.517940213665	0
0	14203	16891.812123957853	0
0	14208	16904.699798163581	0
0	14218	16917.92347228188	0
0	14223	16918.777503520394	0
0	14230	16923.471444285631	4.049551467031
0	14248	16944.819299453042	0
0	14278	16962.618341311538	0
0	14303	16984.450827587349	0
0	14313	16986.759275362701	0
0	14318	16991.102052260839	0
0	14323	16997.87858045969	0
0	14342	17015.587358164234	1.452641662791
0	14351	17039.476321423101	0
0	14361	17051.974726688819	0
0	14381	17067.683308360941	0
0	14415	17081.679714388272	0
0	14431	17096.179924926183	0
0	14435	17096.80732272369	0.279338882938
0	14443	17120.099954441528	0
0	14478	17180.11118622327	0
0	14506	17208.75472554588	7.604304696769
0	14513	17217.03651966061	15.642288927854
0	14533	17232.912799481073	0
0	14553	17257.253244590593	0
0	14557	17264.160996470175	6.697834091801
0	14566	17271.013824243898	0
0	14589	17297.831063264881	0
0	14614	17329.374648190749	0
0	14666	17420.314873664509	0
0	14691	17442.908273247472	0
0	14701	17453.520750679696	0
0	14728	17483.691168971103	0
0	14763	17536.842214944563	0
0	14803	17597.961002392942	0
0	14815	17613.933808420174	2.573264691157
0	14831	17625.38972302944	0
0	14845	17636.138497115536	10.587979086136
0	14901	17698.346359369505	0
0	14918	17713.942330720268	0
0	14934	17734.215084939658	0
0	14944	17741.34539217392	0
0	14976	17769.706148691155	0
0	14997	17789.70481941253	0
0	15001	17790.82796810279	1.07096798887
0	15014	17799.414579821871	0
0	15038	17838.67860604982	0
0	15043	17847.520183601942	0
0	15048	17851.854438744596	0
0	15058	17856.031049501424	0
0	15078	17913.233451046752	0
0	15088	17928.289605901463	0
0	15133	17957.743997930605	0
0	15143	17975.208929120559	0
0	15148	17982.55941785173	0
0	15166	17996.315881409748	0
0	15184	18012.038039017814	0
0	15193	18018.643046234852	0
0	15201	18022.411155691115	0
0	15241	18069.960308552448	0
0	15256	18083.204653344864	0
0	15291	18116.092942733256	0
0	15306	18125.19848025362	0
0	15321	18139.102103807361	0
0	15338	18171.257542030124	0
0	15346	18174.305512207153	0
0	15406	18231.119768735862	0
0	15422	18242.41203109609	0
0	15437	18254.475206665901	0
0	15456	18268.980043709047	5.533071056293
0	15498	18314.764797602964	0
0	15528	18337.759659872714	0
0	15554	18364.563010717394	0
0	15582	18382.237171632642	0
0	15595	18408.352462251861	0
0	15634	18451.761982551522	0
0	15646	18458.683575505913	0
0	15681	18484.73079660311	0
0	15688	18485.855190325142	0
0	15758	18574.241802976136	0
0	15771	18592.715853049865	0
0	15828	18662.590315480811	0
0	15838	18666.7701502681	0
0	15848	18679.134153086426	8.482045690649
0	15852	18680.899526673362	3.910503567123
0	15863	18700.954591862257	0
0	15886	18709.671110168359	0
0	15893	18715.816821292786	0
0	15913	18755.046456036014	0
0	15926	18768.342960236569	0
0	15936	18783.590078932273	0
0	15941	18786.45318468268	0
0	15951	18803.047924714306	0
0	15964	18810.450951329456	0
0	15976	18824.700986431209	0
0	15982	18835.656214904046	5.294752589249
0	15988	18844.003261548685	0
0	16004	18854.816084997137	0
0	16027	18870.474443520992	0
0	16032	18870.684787404861	0
0	16037	18872.764449993007	0
0	16061	18932.659254901899	0
0	16074	18951.441875288984	0
0	16087	18968.579694832742	13.123847673864
0	16093	18971.1374161908	0
0	16106	18975.477906002538	0
0	16123	18992.883730317692	6.464700978932
0	16127	18994.87001188926	6.633021223888
0	16154	19034.009907016211	0
0	16165	19041.998003245373	0
0	16170	19043.772572468446	0
0	16178	19052.736864358181	2.052433067122
0	16199	19076.350583846715	22.999299769632
0	16210	19083.558639671058	27.609936652437
0	16236	19117.689694538815	0
0	16247	19124.655755998268	3.097806002311
0	16261	19132.199009030654	0
0	16267	19135.55405226587	0.5340006932
0	16273	19138.69084332454	0
0	16288	19147.49502848037	5.176016702238
0	16298	19160.10417813681	0
0	16308	19176.695946621636	0
0	16318	19205.388554719097	0
0	16323	19213.084387781279	0
0	16338	19228.327762374722	0
0	16348	19248.527206974223	0
0	16387	19282.686510394587	0
0	16404	19303.639967058525	0
0	16409	19305.348241202789	0
0	16421	19309.836729889355	0
0	16428	19319.98591318402	0
0	16436	19337.956962278574	0
0	16483	19362.562779642016	0
0	16491	19368.626524591736	0
0	16506	19378.928376327822	0
0	16538	19402.398076429198	0
0	16543	19405.499662853951	0
0	16548	19414.680272020876	0
0	16553	19418.80226691748	0
0	16566	19429.499894649316	0
0	16573	19442.74838257838	0
0	16580	19452.49862005941	6.627845981541
0	16588	19461.050088109377	0
0	16602	19475.43713683953	8.56739057675
0	16608	19480.931509169374	0
0	16613	19490.727881974075	0
0	16623	19505.479301166869	0
0	16630	19519.343505144916	11.572283072924
0	16637	19523.52705185471	0.250449669769
0	16647	19534.846686495109	11.147612701832
0	16652	19541.591726551096	2.567903108498
0	16668	19565.474294256364	0
0	16686	19582.750877667426	0
0	16693	19590.744229037967	0
0	16701	19595.243418357799	0
0	16707	19605.40175930997	10.03818833834
0	16716	19616.084143292762	0
0	16725	19621.284280200575	4.554059178173
0	16740	19630.892717321045	12.363621468185
0	16750	19643.404452970654	9.162817666125
0	16755	19643.878886514253	0.178860900064
0	16762	19649.603061655689	1.228761391401
0	16783	19658.871711976449	0
0	16796	19663.910178939568	0
0	16808	19709.106950564431	0
0	16813	19712.157753285903	0
0	16828	19723.168462680025	8.890838150091
0	16853	19748.388221067074	0
0	16862	19753.721172858069	3.334956560475
0	16891	19796.207748779241	0
0	16911	19815.984235864971	0
0	16926	19832.12143149703	0
0	16956	19864.347582817765	0
0	16969	19877.129972954743	0
0	16977	19884.523310161215	4.954952010975
0	16983	19890.562074066426	0
0	17003	19907.096621552196	0
0	17016	19958.846749729225	0
0	17023	19965.038675041955	0
0	17039	19980.173970257383	0
0	17054	20005.374032929363	0
0	17063	20012.865767556654	0
0	17083	20059.449047720985	0
0	17091	20065.08297181318	0
0	17108	20101.513376691241	0
0	17118	20111.34266664669	8.851114019638
0	17120	20112.734761269884	7.763721615066
0	17141	20134.036047062954	0
0	17148	20153.685632525324	0
0	17153	20158.665395566671	0
0	17163	20174.824960359456	0
0	17183	20190.377396898304	0
0	17198	20209.806050332623	0
0	17208	20228.372041609833	0
0	17236	20253.383437236621	0
0	17243	20260.875165164214	0
0	17251	20264.148616651245	0
0	17281	20309.298650462149	0
0	17301	20315.063940946409	0
0	17306	20316.250961555276	0
0	17313	20320.96758680664	4.604304856115
0	17315	20321.352081928084	0.460215564944
0	17322	20327.349474254696	5.618903536393
0	17338	20341.682156292545	0
0	17348	20344.559793284049	0
0	17356	20347.598492351493	0
0	17383	20392.340167912182	0
0	17388	20397.280827414895	0
0	17393	20399.471685498916	0
0	17400	20405.299376505381	4.939747321318
0	17402	20407.402846875224	2.319142508819
0	17413	20412.297933238324	0
0	17431	20434.433727335705	0
0	17438	20446.124346394954	0
0	17463	20463.667964956337	0
0	17478	20489.023577028427	0
0	17496	20516.725069512881	0
0	17511	20526.384384401207	4.453337075773
0	17520	20529.20043356363	3.71341333416
0	17543	20588.365311710083	0
0	17556	20603.667226287167	0
0	17562	20607.245035325127	1.970465738307
0	17568	20614.430321225533	0
0	17593	20637.486008352078	0
0	17603	20651.545346647879	0
0	17618	20676.103382558916	0
0	17636	20694.292973971875	0
0	17643	20705.314829949091	0
0	17653	20709.164478985689	0
0	17658	20714.276959843571	0
0	17662	20715.22019141142	0.483870262917
0	17671	20725.067513459622	0
0	17681	20732.221530633649	0
0	17723	20780.93104824727	0
0	17761	20822.766016045209	0
0	17778	20835.209214586751	0
0	17797	20846.586738619429	0
0	17813	20853.463401290437	0
0	17837	20865.6160709541	0
0	17853	20880.560977748985	0
0	17872	20897.068322449518	0
0	17878	20899.762675660977	1.656593902288
0	17903	20919.201377569769	0
0	17918	20938.326948677575	0
0	17928	20958.442104061784	0
0	17938	20963.63296208815	0
0	17953	20996.211869236392	0
0	17963	21004.680810315883	0
0	17978	21034.083618518307	0
0	18003	21072.918480896021	0
0	18013	21077.060358192258	1.018553046925
0	18031	21087.894353847397	0
0	18041	21090.580302785814	0
0	18051	21096.433923326873	0
0	18055	21101.741341072939	2.861298245823
0	18081	21121.786112736126	0
0	18096	21134.104723511516	0
0	18112	21141.990193422419	0
0	18161	21190.182722544941	0
0	18165	21191.489955301462	0.937204919168
0	18184	21210.40640561421	0
0	18206	21233.283271540771	0
0	18259	21284.813083327954	0
0	18269	21294.20420739156	0
0	18285	21310.440754826381	0
0	18322	21343.206447778285	0
0	18333	21346.829907475257	0.598109545242
0	18351	21359.925529294996	0
0	18371	21390.61868402915	0
0	18381	21403.794252058312	0
0	18393	21418.543419786219	0
0	18406	21433.778144319194	0
0	18426	21457.262426912494	0
0	18442	21474.293677391802	0
0	18448	21478.747766682831	4.204194946852
0	18478	21521.5199724026	0
0	18511	21547.598483137818	0
0	18522	21557.656064476689	9.181032308801
0	18533	21574.857112323207	0
0	18543	21583.604276169631	0
0	18557	21601.318416597149	9.149243522466
0	18563	21615.528261483399	0
0	18588	21641.611421606246	0
0	18592	21644.216938960382	0.144947335984
0	18613	21664.555849457722	0
0	18617	21667.913132109524	2.924356205463
0	18631	21676.880944613389	0
0	18643	21680.115980264971	2.911677073666
0	18657	21688.800342128857	2.697193808609
0	18663	21697.118316020312	0
0	18676	21716.492689669517	0
0	18702	21740.091253092395	0
0	18710	21742.386978256257	0.609189339388
0	18716	21744.998264114313	0
0	18776	21814.536939535509	0
0	18788	21832.227921118961	0
0	18798	21847.821141285148	6.216483648206
0	18815	21856.444013598386	3.281825383862
0	18821	21859.578514047891	0
0	18836	21883.162894097741	0
0	18843	21892.314750515678	0
0	18853	21904.68577958957	0
0	18873	21922.169034497598	0
0	18881	21935.964083140624	0
0	18898	21953.176663093102	0
0	18906	21963.67094230673	0
0	18912	21969.051146474312	5.164894549463
0	18921	21980.638809913709	0
0	18926	21982.125196624594	0
0	18933	21985.067466597486	0
0	18946	21996.749523344933	0
0	18951	21999.856125306484	0
0	18962	22011.403167847025	9.27301406167
0	18978	22037.208997468919	0
0	18992	22053.207672840225	0
0	19037	22095.351978626438	25.35938903243
0	19039	22095.776981179413	22.774419410662
0	19041	22096.022814919296	19.909380717892
0	19045	22097.760162139372	7.434065992416
0	19053	22128.096139584247	0
0	19069	22205.383310239277	0
0	19079	22213.49653043481	0
0	19098	22223.667585678136	5.087523524391
0	19111	22230.460037423758	9.606766805684
0	19113	22232.151655303722	5.773156749766
0	19128	22253.760244399866	0
0	19133	22254.399775021698	0
0	19138	22270.564040849535	0
0	19148	22277.349017141628	0
0	19171	22293.587226005595	0
0	19188	22306.05858508596	0
0	19198	22318.741180709047	0
0	19205	22321.396669015374	0.634621979562
0	19237	22347.044943837297	0
0	19256	22365.22742022567	0
0	19273	22376.648809337257	0
0	19292	22405.597425233443	0
0	19303	22418.684790307055	0
0	19308	22432.415807326667	0
0	19329	22449.154075438962	0
0	19381	22495.104316348067	0
0	19396	22508.921728370358	0
0	19407	22521.202522192517	2.367722082192
0	19415	22531.658827485607	2.365866353803
0	19429	22544.734466086703	0
0	19451	22564.371966397571	16.120519487618
0	19453	22566.064968804688	14.458710703398
0	19455	22566.92714257364	9.414802192998
0	19476	22599.191604408037	0
0	19493	22643.152690923957	0
0	19501	22654.763627381217	0
0	19507	22659.140186271176	2.303520316769
0	19513	22676.510452474777	0
0	19535	22687.412920161673	5.950724462685
0	19548	22696.559377853936	0
0	19553	22711.398818194954	0
0	19558	22720.116383928916	0
0	19599	22770.983525912683	0
0	19605	22774.383973527993	1.288882436231
0	19613	22778.335460957338	0
0	19623	22784.543340856127	0
0	19628	22787.838654071194	0
0	19648	22821.143458599209	0
0	19655	22827.540829684687	6.162665925249
0	19657	22830.697942222737	8.433195640629
0	19676	22880.283515846868	0
0	19680	22884.384137206271	1.069843525878
0	19688	22890.892022899816	0
0	19695	22900.764343164442	2.427165512661
0	19703	22905.962307048503	7.447497863388
0	19712	22911.538848439964	7.358282844176
0	19731	22927.583725997121	0
0	19746	22974.380580682675	0
0	19771	22990.701218501994	0
0	19778	22998.701104878158	0
0	19782	23008.613801681583	3.611094307351
0	19803	23040.906184192699	0
0	19808	23055.31308786699	0
0	19813	23065.144848888221	0
0	19818	23068.192563369831	0
0	19841	23107.681392349465	0
0	19899	23183.478861864077	0
0	19920	23195.96407233597	0
0	19938	23217.004921901835	0
0	19948	23232.601371327071	0
0	19983	23289.322588187198	0
0	20008	23320.022786425985	0
0	20034	23332.587120770427	0
0	20050	23345.176943614587	11.415002774502
0	20060	23355.394186358417	13.47882837452
0	20098	23418.507544204928	0
0	20103	23426.781558465421	0
0	20133	23453.927849912236	0
0	20137	23462.674211129712	4.561124859269
0	20151	23498.731242837006	0
0	20231	23561.764235473272	0
0	20258	23587.065852748616	0
0	20268	23593.331383372479	0
0	20288	23630.478467313934	0
0	20301	23659.020643498107	0
0	20346	23694.175822429968	0
0	20350	23697.944892635434	0.381650244639
0	20363	23715.663664377373	15.868321619243
0	20365	23717.562194027535	8.851209329612
0	20378	23731.032442776437	0
0	20388	23734.932741933514	0
0	20403	23752.33956544265	0
0	20428	23794.601662245954	0
0	20437	23800.072194557007	3.128291238993
0	20467	23838.711239135511	0
0	20480	23852.248785250678	1.408955224618
0	20487	23859.046588972484	1.73459020311
0	20498	23867.779572920018	0
0	20518	23896.150805717786	8.45667286665
0	20520	23896.888359013933	3.607536445605
0	20537	23909.848876165843	0
0	20567	23939.785781680824	0
0	20593	23983.972042244647	0
0	20616	24000.169212365128	0
0	20624	24015.647910631863	0
0	20631	24019.724061895703	0
0	20672	24060.469914295139	0
0	20691	24078.835492844745	0
0	20711	24102.435048091365	0
0	20731	24128.922901274976	0
0	20746	24144.001638566885	0
0	20763	24147.970600962693	2.753811517732
0	20770	24152.643036972732	6.31958763384
0	20772	24153.830588909586	5.884631612002
0	20781	24158.83100246578	0
0	20791	24165.057442266665	0
0	20801	24173.010553642493	0
0	20805	24178.222718362091	4.317170784368
0	20899	24273.186469280762	0
0	20936	24309.437374719517	0
0	20948	24313.278407899203	0
0	20958	24319.292465343438	0
0	20994	24378.160249607443	0
0	21014	24406.711212315904	0
0	21026	24414.995948304337	0
0	21043	24448.526299032917	0
0	21058	24463.276465934478	10.651217337367
0	21073	24492.266097343167	0
0	21083	24518.675239287415	0
0	21098	24540.387281698805	0
0	21105	24542.313703834085	1.04439946841
0	21143	24573.728249036327	0
0	21177	24601.036773841348	0
0	21198	24618.253975745364	0
0	21212	24629.298133833142	0
0	21222	24635.391349439813	4.961102022486
0	21232	24639.064810068267	7.134844746163
0	21234	24640.709075969644	7.517300562607
0	21236	24640.745276964972	5.051702901881
0	21298	24683.079784008042	0
0	21336	24703.805539628082	0
0	21357	24720.939947293261	0
0	21374	24728.7450543002	0
0	21381	24741.852472392308	0
0	21403	24773.865462553988	0
0	21413	24782.386143141116	0
0	21417	24795.217705842702	5.175650166132
0	21438	24808.833321005095	0
0	21443	24812.766342592834	0
0	21466	24836.900458607737	0
0	21487	24859.799720953351	8.383650915629
0	21493	24861.431957364612	0
0	21501	24873.983096419915	0
0	21521	24904.827075485647	0
0	21527	24917.146075622202	8.941278612298
0	21532	24917.688317104982	0.427513754649
0	21543	24930.452007290313	0
0	21548	24935.448305703489	0
0	21568	24953.226176254324	0
0	21582	24967.01339533363	0
0	21600	24977.904653969795	4.953297570151
0	21609	24988.407782678536	0
0	21633	25015.516631185105	0
0	21645	25022.365860518552	6.600895787002
0	21647	25026.9407215396	9.249676570069
0	21682	25070.089716518628	41.705369807734
0	21688	25075.539136866927	42.762625472923
0	21695	25082.71930784723	40.36599067215
0	21697	25087.800590773509	20.952905352305
0	21737	25114.015160734688	0
0	21758	25130.267267496665	0
0	21768	25139.150610228807	0
0	21775	25141.915044251403	1.395760584274
0	21782	25151.675513209747	5.508400009249
0	21788	25153.968863280881	0
0	21793	25163.016656184448	0
0	21797	25163.994030708599	0.461570887914
0	21806	25167.844068386318	0
0	21816	25177.208042025233	0
0	21823	25186.770419112013	0
0	21838	25219.047712150362	0
0	21843	25233.296823841128	0
0	21891	25316.075813623342	0
0	21918	25353.459346456076	0
0	21931	25370.811051202931	0
0	21953	25391.226836563137	0
0	21971	25396.553580226662	0
0	21988	25407.468617139819	0
0	22008	25445.994918261159	0
0	22013	25450.697607488385	0
0	22041	25496.915067107971	0
0	22058	25531.441577363329	0
0	22081	25561.083200863696	0
0	22088	25565.853435745088	0
0	22105	25578.082360052925	9.919446964777
0	22118	25586.051013298522	15.143390493203
0	22120	25588.229572471476	9.694546564526
0	22122	25588.974015561994	4.954643493896
0	22133	25602.111193982841	0
0	22143	25616.154807555771	0
0	22171	25660.263734179683	0
0	22208	25682.149239286432	0
0	22228	25715.092313338595	0
0	22248	25742.601040997962	0
0	22286	25797.007635175236	0
0	22301	25820.636099383127	0
0	22318	25831.525325592631	5.000488210414
0	22326	25840.834418907962	8.51811010351
0	22330	25841.520763501878	4.832008604647
0	22341	25848.619237298913	0
0	22345	25852.988474145099	2.717872902988
0	22351	25855.063533273434	0
0	22384	25922.602933127446	0
0	22392	25927.185383061464	0.922038267128
0	22416	25953.424627142217	0.632970976917
0	22431	25962.534939243799	9.702736217505
0	22446	25978.648837347722	21.633231210275
0	22456	25992.534745165412	25.361974981337
0	22458	25993.312407918113	25.427892152138
0	22460	25994.061448063325	2.256470351114
0	22468	26004.289625617623	0
0	22478	26011.767373542719	0
0	22483	26029.781244395751	0
0	22498	26034.417551018066	0
0	22503	26045.721412149899	0
0	22513	26060.792232801887	0
0	22543	26106.299990711769	0
0	22559	26112.224562912067	0
0	22598	26153.715282149157	0
0	22613	26161.8671242755	6.333532438555
0	22620	26165.553010035098	1.079347028216
0	22643	26200.739393086389	0
0	22666	26220.11546029693	0
0	22686	26232.255385379227	0
0	22692	26242.760975162782	9.445991562659
0	22701	26249.691061895004	0
0	22713	26262.052066933554	0
0	22731	26300.200972845554	0
0	22746	26326.430193219756	0
0	22758	26349.713966710168	0
0	22763	26359.255725075196	0
0	22797	26389.125315960114	0
0	22818	26427.577232733954	0
0	22838	26448.648790167298	0
0	22853	26466.331432546592	0
0	22861	26478.745571133283	0
0	22891	26509.06780527377	0
0	22906	26526.317228802965	0
0	22913	26536.460030825448	0
0	22917	26554.204629128253	8.866700493326
0	22926	26560.315379015081	0
0	22943	26579.938055667371	0
0	22948	26581.883792178994	0
0	22991	26617.774943965824	0
0	23008	26639.145281740921	0
0	23028	26669.63866247958	0
0	23036	26678.34601577158	0
0	23046	26683.308094408555	0
0	23063	26703.853364708483	0
0	23095	26736.895324529865	0
0	23146	26787.988950828833	0
0	23152	26796.421325963344	1.28441214985
0	23163	26808.325932559964	0
0	23173	26814.09194456698	0
0	23197	26828.878793675058	0
0	23201	26831.874527074102	2.047706617202
0	23249	26879.313366278897	0
0	23278	26905.366966970674	0
0	23283	26924.496795905647	0
0	23306	26961.972036547322	0
0	23321	26980.150934639187	0
0	23333	27001.161408838561	0
0	23343	27011.57018526056	0
0	23361	27041.622215222691	0
0	23391	27077.310202876072	0
0	23408	27091.9321634229	13.670733265487
0	23410	27093.73041913478	10.196609498243
0	23417	27099.300647871043	3.509310669647
0	23435	27115.413370344148	1.708460501994
0	23464	27138.612451046308	0
0	23486	27168.130370770058	0
0	23502	27184.845691115633	0
0	23511	27189.130421752149	0
0	23516	27195.623222511745	0
0	23536	27223.333795964739	0
0	23548	27229.622629802347	6.026318075068
0	23566	27241.935670102994	0
0	23576	27249.062126357424	0
0	23608	27287.831713414084	0
0	23612	27290.288840683198	0.909940974431
0	23631	27307.198848216431	0
0	23640	27310.438851769905	0.305741589839
0	23655	27323.165023992331	4.383932323843
0	23660	27326.779761748617	5.720832783522
0	23673	27344.925169597018	0
0	23694	27353.47556208186	0
0	23713	27371.031423099961	0
0	23717	27371.727310810485	0.177579121084
0	23726	27381.825878784293	0
0	23749	27390.656360581229	0
0	23761	27398.445412550618	0
0	23774	27408.924736116417	0
0	23818	27457.097886689973	0
0	23829	27470.312116182849	0
0	23837	27475.535158729115	0
0	23848	27485.405152971314	0
0	23853	27491.141882006655	0
0	23858	27506.824295418669	0
0	23872	27516.718989913461	0
0	23886	27521.377761011265	0
0	23893	27536.77413599829	0
0	23901	27544.790309298859	0
0	23942	27574.120832517349	0
0	23963	27585.919227480009	0
0	23971	27593.319909883185	0
0	23986	27605.185616970426	0
0	23996	27610.233975663799	2.814401180077
0	24008	27623.339634570455	0
0	24013	27635.452177402888	0
0	24020	27641.131488865363	5.395786883431
0	24025	27642.981015371721	1.593477519143
0	24031	27644.189904477976	0
0	24041	27674.089490347785	0
0	24051	27689.283288554977	0
0	24076	27707.565925319702	0
0	24080	27710.845368535927	0.574993598628
0	24095	27728.060905689314	4.420537747896
0	24100	27730.78155351969	4.378353750119
0	24107	27738.463365374727	8.385732600411
0	24113	27753.879998921941	0
0	24122	27768.567249469705	5.427661820085
0	24153	27823.750454900418	0
0	24163	27829.28536254282	1.276346934901
0	24180	27840.196272035271	9.551643642602
0	24185	27841.825722130251	6.687387738211
0	24195	27851.532331596723	10.926361293579
0	24197	27855.143881525983	9.08981013404
0	24208	27864.918837034293	0
0	24216	27880.441029449378	0
0	24231	27891.788573231364	0
0	24238	27905.247162620509	0
0	24247	27913.058660446728	7.037430587695
0	24253	27924.318966467437	0
0	24263	27994.683219881995	0
0	24281	28018.675873471173	0
0	24301	28028.300254108463	0
0	24309	28036.412035364096	0
0	24332	28070.052447409952	23.505535667025
0	24361	28096.466222543875	19.345012651713
0	24363	28100.806320507963	5.535645728898
0	24381	28137.761515334756	0
0	24394	28148.918235090854	0
0	24406	28155.700334423888	0.395665909033
0	24429	28175.89308057427	0
0	24434	28178.064910329118	0
0	24443	28186.976661861353	0
0	24453	28207.971434048727	0
0	24468	28233.832654135719	0
0	24488	28258.907957237102	0
0	24503	28294.749615997435	0
0	24516	28297.837624529434	0
0	24535	28315.269423720404	0
0	24553	28334.928407653374	0
0	24568	28343.811773667178	8.521727525943
0	24570	28346.18055419518	2.732197923826
0	24599	28393.318766237861	0
0	24611	28425.478094827157	0
0	24638	28487.107376608977	0
0	24658	28507.97092501951	0
0	24662	28520.021412516595	10.568123232816
0	24673	28524.349851474509	3.855746679757
0	24677	28527.823333233768	5.24251613546
0	24683	28532.844855213323	0
0	24703	28552.438295423733	19.377027211826
0	24710	28555.324082251328	6.371469575265
0	24723	28563.387769600401	0
0	24738	28569.743409268896	5.868838940049
0	24747	28576.498240439415	2.922548709801
0	24777	28594.174862726237	0
0	24792	28606.514708183662	0
0	24807	28623.120492646201	0.968312399353
0	24828	28657.81571260412	0
0	24838	28672.904287334053	0
0	24843	28674.429932108018	0
0	24851	28682.533506200504	0
0	24878	28733.605017689564	0
0	24888	28742.572078650676	0
0	24892	28747.074602203923	1.508096971721
0	24903	28760.15151323142	6.915352857276
0	24927	28780.047212945473	0
0	24943	28790.092712500635	0
0	24951	28807.046914739919	0
0	24978	28865.561869936129	0
0	24986	28878.277199911722	0
0	25006	28894.75172943584	0
0	25022	28917.032156405173	0
0	25034	28931.20738333817	0
0	25043	28937.367520213323	0
0	25063	28955.796734162392	0
0	25077	28964.30135351721	5.636508788649
0	25083	28965.729572126986	0
0	25129	29041.915519291058	0
0	25138	29047.387867425616	0
0	25155	29063.916641271114	0.344181035122
0	25166	29071.722478905272	0
0	25184	29096.960439613649	0
0	25199	29118.608529439314	0
0	25218	29142.399528673481	0
0	25225	29156.146481776094	13.056103018406
0	25230	29158.244957248105	4.769164147472
0	25243	29166.266911283805	7.14511996489
0	25267	29180.437755130167	0
0	25301	29208.38004945165	0
0	25316	29219.002298617456	0
0	25328	29231.813961205427	0
0	25333	29233.699253194528	0
0	25357	29259.315672891102	3.559075895343
0	25396	29290.965690112607	0
0	25414	29314.622709372191	0
0	25423	29318.163906482043	0
0	25433	29364.444974941137	0
0	25448	29381.110847007195	0
0	25458	29400.017036344586	0
0	25463	29411.662881494385	0
0	25491	29446.093108236179	0
0	25521	29486.989749770842	0
0	25531	29495.492783782752	5.432838012065
0	25533	29496.254142746132	4.862156908973
0	25537	29499.535790951427	5.217659855479
0	25543	29508.589861764869	0
0	25589	29579.781425206292	0
0	25608	29593.738592016956	0
0	25613	29599.08090061292	0
0	25633	29615.418004874774	0
0	25646	29636.236410162515	0
0	25656	29647.447871673988	0
0	25673	29669.510631606501	0
0	25691	29699.539782961548	0
0	25702	29706.159357711005	0.680230857462
0	25710	29710.086729071186	2.792806479697
0	25718	29717.254240957053	0
0	25723	29722.24600428506	0
0	25743	29751.701170396177	0
0	25756	29774.085541246194	0
0	25761	29777.637456299271	0
0	25783	29802.633875607957	0
0	25787	29803.218228658739	0.168471826914
0	25797	29810.761071290436	0.493448179109
0	25813	29822.170707434235	2.872328249695
0	25825	29830.489255173098	3.241421911925
0	25837	29836.195014099355	0
0	25852	29843.495473914654	0
0	25857	29846.119818278284	0
0	25883	29874.471059241944	0
0	25888	29890.7492983721	0
0	25897	29900.29116456055	2.514645579453
0	25903	29909.512321145529	0
0	25907	29912.458867670934	0.977805135195
0	25918	29933.082384071783	0
0	25946	29951.32342595818	0
0	25968	29985.912764201563	0
0	25973	29988.648619642353	0
0	25981	29998.145846940103	0
0	25992	30003.206532253316	0
0	26009	30026.98961120854	0
0	26043	30054.692562874636	0
0	26061	30069.664725001855	0
0	26068	30082.405748564589	2.862101104045
0	26079	30088.927258443034	0
0	26112	30105.234254795673	0
0	26121	30106.928479961115	0
0	26128	30114.76198200036	0
0	26136	30146.908222503488	0
0	26143	30164.686732958019	0
0	26166	30197.969099361779	0
0	26198	30250.503818430196	0
0	26209	30259.474452171953	0
0	26213	30262.025306621726	1.145803112514
0	26221	30264.971963411839	0
0	26242	30273.256996172889	0
0	26277	30296.935696809497	0
0	26282	30301.761101747241	0
0	26313	30327.380843023952	0
0	26318	30351.393747473678	0
0	26331	30366.555520845999	0
0	26342	30375.483942536572	0
0	26358	30391.418640501669	0
0	26371	30395.07211981429	0
0	26403	30433.6228745489	0
0	26421	30453.717852416215	0
0	26433	30467.935270617433	0
0	26437	30468.011737921999	0.043985219252
0	26469	30486.62010110608	0
0	26473	30486.760699938598	0.059166182676
0	26483	30494.67854553206	0
0	26488	30502.252733429595	0
0	26503	30535.031843714066	0
0	26507	30545.18267374375	9.503808133203
0	26563	30610.733825608157	0
0	26586	30640.439559570153	0
0	26592	30643.535368375004	2.7957774738
0	26601	30645.804951264446	0
0	26613	30657.913551120937	0
0	26625	30665.997120559663	1.39100420475
0	26640	30676.109503848887	9.057580996832
0	26642	30676.67394961996	4.013172900856
0	26653	30686.8560498248	0
0	26687	30707.350562291865	0
0	26692	30710.040680614434	0
0	26703	30717.454123635763	6.769793538934
0	26707	30720.600896405695	6.964816176034
0	26713	30721.293932701788	0
0	26733	30736.145467147469	12.090140967235
0	26738	30742.635627680762	11.352961886128
0	26747	30772.293221240144	12.135966440766
0	26763	30784.396494076944	0
0	26813	30861.629605867204	0
0	26838	30883.509957701476	0
0	26853	30926.548283878015	0
0	26898	30979.077765641429	0
0	26918	30997.390765824647	0
0	26948	31047.551719530054	0
0	26973	31091.572353018333	0
0	26981	31107.278049596419	0
0	26998	31141.724144007481	0
0	27013	31150.234246401651	0
0	27029	31175.585881397843	0
0	27035	31188.750411591271	10.895030214899
0	27058	31207.953386911305	0
0	27068	31222.948508354006	0
0	27096	31241.672735562326	0
0	27100	31243.47290907518	0.864180271618
0	27116	31273.582764790673	0
0	27126	31279.903626462738	0
0	27133	31287.367688135936	0
0	27151	31304.606412881022	0
0	27157	31312.506321736825	5.994522666532
0	27163	31317.576792532622	0
0	27167	31333.522636847158	15.676129806816
0	27206	31407.741958291102	0
0	27219	31415.834172775042	0
0	27232	31418.234326622303	0
0	27248	31428.816078547582	6.097701608547
0	27261	31438.318448407171	0
0	27296	31490.088039176728	0
0	27303	31497.033509594221	0
0	27319	31529.990663246183	0
0	27333	31554.163045317035	0
0	27338	31568.557390791018	0
0	27348	31580.976400963764	0
0	27383	31595.121249332274	6.938987960629
0	27385	31597.390906974107	6.163068627225
0	27401	31605.661970136319	12.866408425574
0	27408	31608.047391722452	9.745742734748
0	27410	31611.913703139168	11.735738891792
0	27421	31619.005219694522	0
0	27441	31638.139736182479	0
0	27450	31652.374624365581	6.295868491145
0	27458	31657.457604398255	8.159160005067
0	27478	31696.815992744868	0
0	27533	31756.311958404274	0
0	27563	31800.463018037246	0
0	27568	31804.816120094875	0
0	27588	31820.988737290068	15.256043935731
0	27597	31830.365872810639	11.018898461687
0	27616	31840.342696285565	4.246876922216
0	27618	31841.401512020656	2.592179453066
0	27663	31915.837373560497	0
0	27699	31991.895783717966	0
0	27720	32010.837567247203	18.438338566569
0	27722	32014.470202261985	8.530607794875
0	27733	32043.490162037446	0
0	27758	32093.570426811877	0
0	27782	32113.808701201254	16.548845871283
0	27799	32121.573174574739	0
0	27806	32127.164283951939	0
0	27828	32165.363027077859	0
0	27871	32215.838792703183	0
0	27883	32228.365203013063	0
0	27888	32234.425395138318	0
0	27892	32244.644071722963	3.867027399332
0	27913	32270.009806614392	0
0	27938	32291.496915916113	0
0	27943	32304.742111282041	0
0	27963	32339.620052603657	0
0	27967	32340.848630216414	0.488651390958
0	27987	32362.37435482764	0
0	27999	32368.824196153872	0
0	28003	32369.928772956354	0.134022823025
0	28013	32375.983156621696	0
0	28017	32384.897160319855	4.813270691899
0	28044	32412.207855100291	0
0	28063	32442.70867403597	0
0	28079	32456.073323032037	0
0	28103	32479.321542103937	0
0	28108	32484.863043265985	0
0	28115	32487.419254044986	0.558483822402
0	28126	32507.221895652853	0
0	28138	32512.281331896006	0
0	28149	32533.255880641411	0
0	28167	32558.678938601223	0
0	28183	32568.803048015832	0
0	28192	32571.878321839284	1.135341172594
0	28212	32586.078297993541	0
0	28220	32593.484679243279	0
0	28251	32639.638932299645	0
0	28267	32651.879642001126	0
0	28276	32658.403497313571	0
0	28286	32676.703166180197	0
0	28311	32695.893633510853	0
0	28328	32726.696135350588	0
0	28342	32735.171203689829	0
0	28363	32756.433413690708	0
0	28383	32777.806326666016	0
0	28406	32789.738616844921	0
0	28416	32809.313167053847	0
0	28422	32815.390771740558	5.643461255355
0	28430	32818.999903540099	1.533238505459
0	28446	32832.305017930171	7.676684578013
0	28460	32837.616460792117	3.545445116183
0	28488	32859.375019409011	0
0	28495	32865.977387115369	5.265287461567
0	28543	32904.280895490597	0
0	28553	32930.377506953521	0
0	28558	32935.818537637701	0
0	28565	32940.997163442282	0.66859506466
0	28570	32946.58877751211	1.477717395504
0	28580	32952.654756905737	4.123792157629
0	28593	32962.394214862883	10.899795945792
0	28623	32991.033073194798	0
0	28634	33014.319975735537	0
0	28648	33025.822071178818	10.427535224491
0	28657	33032.677850737916	0.095245108013
0	28663	33039.601824628196	0
0	28671	33042.409369237786	0
0	28686	33052.73050608551	0
0	28693	33061.741313541167	0
0	28697	33077.116765926246	6.709941596282
0	28711	33095.079514314767	0
0	28763	33164.539854058073	0
0	28768	33171.754166092422	0
0	28781	33179.855437619135	0
0	28787	33182.50006004569	1.73571959514
0	28813	33209.367375126248	0
0	28821	33223.00566296454	0
0	28832	33239.880325042936	14.591593024419
0	28843	33269.615654765033	0
0	28858	33280.925798911793	10.180193862622
0	28860	33281.597885316773	1.25672018137
0	28883	33303.586914146552	0
0	28890	33312.475393932909	3.278449832525
0	28897	33319.752401816005	5.67526426974
0	28924	33361.290164302169	0
0	28939	33372.597231782501	0
0	28958	33412.950156022771	0
0	28970	33417.839598612279	3.763014584109
0	28980	33423.039093589469	1.653106547647
0	29027	33491.785891975558	0
0	29043	33503.594619420051	0
0	29053	33511.208061941784	0
0	29060	33520.361538570453	8.08033533821
0	29068	33526.564469417279	13.573339143176
0	29078	33535.223265892374	0
0	29089	33542.184364632549	0
0	29101	33546.182382659555	0.653389144851
0	29107	33548.128158918428	2.54564049375
0	29118	33576.376916835655	0
0	29128	33594.428115115384	0
0	29163	33632.322856020398	0
0	29167	33648.400267816519	15.623885974328
0	29180	33661.636805609525	11.942765134769
0	29193	33673.081393814195	0
0	29228	33740.116620609499	0
0	29248	33752.283081262947	0
0	29261	33769.262351176553	0
0	29293	33816.136944126907	0
0	29303	33832.638961217672	0
0	29308	33835.793248193867	0
0	29333	33866.192353698103	0
0	29354	33886.155203826899	14.702174155755
0	29356	33886.779698345476	13.629266899825
0	29358	33887.667845851109	9.41286319829
0	29360	33888.001028725485	7.593857152328
0	29362	33893.082650499854	9.391822570625
0	29368	33898.039848794142	0
0	29388	33921.028802427329	3.547914553962
0	29431	33969.533900294785	0
0	29451	33990.986938092074	0
0	29458	33997.775080049511	0
0	29465	34008.44895801513	7.633185548573
0	29467	34012.163670873871	7.376395712337
0	29488	34036.855385731068	0
0	29492	34045.454724211354	3.756125877303
0	29501	34054.667594950298	0
0	29524	34080.11236993072	0
0	29532	34084.741776569016	0
0	29538	34089.089646737563	1.712372145941
0	29586	34158.808383477146	0
0	29598	34172.492344196087	0
0	29603	34175.384982311481	0
0	29616	34184.879979393796	0
0	29626	34199.128967972422	0
0	29633	34238.310904256492	0
0	29641	34247.705146495564	0
0	29663	34289.951857938349	0
0	29681	34310.319863556608	0
0	29691	34319.606661782596	0
0	29698	34324.126915710193	0
0	29706	34334.755673444531	0
0	29718	34351.079220326506	0
0	29723	34367.587532902074	0
0	29731	34379.388974767211	0
0	29773	34427.33971364062	0
0	29798	34480.657622222177	0
0	29813	34501.870517984972	0
0	29821	34507.243539859735	0
0	29844	34546.543176856332	0
0	29853	34549.306691453157	1.574109132257
0	29873	34583.181369577392	0
0	29878	34591.84557423181	0
0	29898	34627.875847635301	0
0	29914	34664.010495516307	0
0	29925	34675.164118057404	10.827995499074
0	29938	34693.052353244928	0
0	29943	34704.400357663317	0
0	29953	34709.38899086027	0
0	29957	34715.853576497027	3.133409887059
0	29968	34724.341180057452	0
0	29982	34738.638056552363	2.81560714979
0	29995	34741.683367334841	1.92663988824
0	30006	34758.20903247331	0
0	30023	34775.401339889444	0
0	30031	34780.888313403481	0
0	30045	34790.609688105051	9.079142243338
0	30047	34791.54267779818	5.453068959557
0	30053	34797.390392810777	0
0	30058	34808.088702993988	0
0	30063	34815.148542717474	0
0	30073	34832.284483167463	0
0	30085	34839.209099512262	1.802342641825
0	30109	34852.516894917764	0
0	30120	34859.536167330479	2.673142294429
0	30125	34864.049640699456	1.933065366747
0	30141	34885.342709725496	0
0	30151	34896.750393467839	0
0	30161	34908.725696938649	0
0	30173	34914.075296380294	3.060581377946
0	30178	34914.600488079702	2.210018762151
0	30183	34915.429560155757	1.195730383165
0	30195	34927.227419104182	4.254849092774
0	30206	34934.638313120466	0
0	30223	34958.803045701249	0
0	30231	34968.604868635954	0
0	30246	34985.348063054342	0
0	30256	34994.92124824665	0
0	30268	35008.966772437554	0
0	30276	35009.895344668957	0
0	30282	35017.937527646653	1.14767673656
0	30316	35075.691615164758	0
0	30338	35106.198069966331	0
0	30353	35117.123687041895	7.530250512209
0	30364	35120.995536739802	7.414655708001
0	30374	35124.56216737737	5.870466152458
0	30381	35129.937840363336	7.545680367097
0	30389	35141.732503867728	19.296292519766
0	30393	35144.119097385855	8.749423103936
0	30401	35145.819346472955	5.559945981179
0	30405	35151.379967698268	6.286097182116
0	30412	35166.386622786647	2.569727714037
0	30417	35178.441170318736	9.414044962705
0	30478	35284.042396947202	0
0	30495	35300.139295773563	0
0	30512	35327.765483636409	27.325710023065
0	30543	35372.889935648407	0
0	30551	35399.286191330298	0
0	30577	35416.696804738461	7.293918089677
0	30592	35420.807920205665	3.393392313315
0	30616	35451.401138409549	0
0	30636	35487.344368470947	0
0	30643	35492.087423269532	0
0	30647	35495.064035272958	2.087380132178
0	30703	35563.32461614259	0
0	30769	35676.767675361407	0
0	30774	35678.926037708306	0
0	30788	35707.327918061587	0
0	30795	35715.107476703399	4.085774853768
0	30806	35724.273554327537	10.572174938629
0	30817	35739.436596289707	17.648432442466
0	30836	35760.53349096358	0
0	30863	35770.86888208747	3.249689584227
0	30870	35773.609429073853	3.584462917044
0	30883	35791.355254409587	18.543607973573
0	30885	35798.495499542807	21.378451932955
0	30887	35801.342167461168	23.666383656891
0	30918	35825.560819931463	0
0	30933	35834.599445794615	0
0	30941	35848.995228373523	0
0	30948	35855.751819529884	0
0	30959	35887.993050354268	0
0	30970	35908.034779298654	13.26828909563
0	30983	35916.176621365922	0
0	31008	35948.530212744192	0
0	31013	35952.840528352622	0
0	31036	35982.016753747167	0
0	31044	35992.918505935821	0
0	31048	35996.950444216846	1.662509143755
0	31058	36008.187584361772	0
0	31083	36041.208041199986	0
0	31108	36086.227553193522	0
0	31131	36117.723060824824	0
0	31143	36140.290475004597	0
0	31151	36147.364961198139	0
0	31157	36150.181948049191	1.136617546465
0	31178	36164.996720600602	9.293499910001
0	31194	36181.251878576211	0
0	31214	36201.740208657619	0
0	31255	36243.202379507494	0
0	31274	36252.575034465303	0
0	31281	36254.293729864523	1.047723664184
0	31311	36286.459868598969	0
0	31318	36296.83634896428	0
0	31333	36338.417351528265	0
0	31346	36387.154513533822	0
0	31368	36407.764075013424	0
0	31378	36432.167215342463	0
0	31387	36436.338510866515	1.837594156986
0	31401	36452.141978849576	0
0	31414	36467.862713579858	0
0	31442	36504.377785378373	15.370166675564
0	31451	36523.882235950173	0
0	31456	36524.872409142306	0
0	31461	36527.283897156346	0
0	31481	36550.873636007548	0
0	31487	36563.408714222161	7.913175053842
0	31492	36570.289376184439	4.940897263124
0	31520	36595.239668288508	0
0	31539	36606.503663667851	0
0	31554	36634.750763068439	0
0	31583	36661.935013911733	0
0	31590	36664.819341246758	2.82668928673
0	31667	36761.947337810305	0
0	31680	36773.233139716436	0
0	31689	36783.090845817901	0
0	31697	36785.229425695561	0
0	31718	36806.056233759705	0
0	31723	36814.883105017337	0
0	31727	36815.735234975559	0.324201557253
0	31733	36825.630299213327	0
0	31738	36838.14846424596	0
0	31761	36855.9667889167	0
0	31768	36880.721799733694	0
0	31782	36894.087600945908	6.326926719161
0	31793	36932.59218102994	0
0	31803	36939.705260930453	0
0	31807	36941.682932807759	0.078965347613
0	31818	36958.051304694448	0
0	31828	36971.454238410965	0
0	31833	36986.44615482292	0
0	31846	37004.098347342231	0
0	31853	37028.61434964702	0
0	31860	37034.040392279929	4.117260066168
0	31862	37036.474042248737	2.881225796408
0	31878	37074.21744332737	0
0	31883	37088.665340179707	0
0	31898	37131.22497853832	0
0	31910	37141.192745772447	8.207850323758
0	31924	37155.333078179774	18.324183955478
0	31926	37157.379873271184	7.265877936544
0	31936	37163.224648230545	0
0	31973	37220.972173821059	0
0	31981	37232.285463460705	0
0	32011	37267.517904580435	0
0	32018	37270.836837268313	0
0	32041	37302.354085792077	0
0	32051	37309.896637539766	0
0	32063	37319.191413784928	0
0	32068	37321.582740529048	0
0	32081	37337.950823505387	0
0	32092	37346.165576956691	0
0	32118	37378.993731041726	0
0	32143	37403.539406476435	0
0	32154	37417.982224178892	0
0	32166	37423.581148614801	0
0	32198	37443.181936934775	0
0	32208	37453.57458305846	0
0	32218	37493.813478634215	0
0	32244	37526.655941500208	0
0	32253	37543.10278434518	0
0	32257	37550.499928715146	4.634856204932
0	32268	37570.63017078899	0
0	32276	37579.758183574118	0
0	32286	37599.357632225375	0
0	32298	37612.434351427989	0
0	32313	37647.198130371646	0
0	32331	37670.885253809126	0
0	32350	37677.480976495182	4.622723387093
0	32357	37683.535948810388	3.084534138566
0	32365	37685.753181732522	1.423477899834
0	32378	37692.08564603481	0
0	32382	37700.027076065693	6.187664757663
0	32394	37718.434052418047	0
0	32411	37730.675630901699	0
0	32415	37732.785983159037	1.749176335708
0	32424	37736.20128539629	0
0	32438	37754.964497639317	0
0	32467	37772.282643319892	10.458433070369
0	32504	37809.240469122998	0
0	32546	37871.800500511152	0
0	32568	37880.836700323142	5.982801988053
0	32570	37884.160715350922	6.365377545658
0	32581	37904.658050918435	0
0	32588	37920.744369814126	0
0	32613	37942.876421877835	0
0	32626	37953.152811297353	0
0	32638	37962.996373215687	0
0	32651	37969.393907162558	0
0	32669	37980.027868656977	8.342295569561
0	32682	37984.275241238733	11.636617587419
0	32688	37989.183756647215	14.361952556761
0	32690	37994.143163576998	18.698142190806
0	32692	37996.183261963351	14.307385023727
0	32728	38036.523979385538	0
0	32733	38039.800285564242	0
0	32758	38080.632240227812	0
0	32776	38096.625436511269	0
0	32795	38108.713429810414	1.788158772072
0	32818	38128.559475730534	0
0	32833	38139.532101623474	0
0	32856	38173.247688785535	0
0	32884	38192.704979656222	0
0	32940	38244.877107735887	0
0	32949	38248.874115101502	0
0	32956	38254.072263188386	0
0	32977	38279.329393868748	11.590837152411
0	33013	38318.273624990869	0
0	33038	38348.946930029433	0
0	33048	38355.105162281019	0
0	33058	38366.298940075684	0
0	33065	38367.614434389267	0.622304478094
0	33073	38378.548146764908	0
0	33103	38429.024275974747	0
0	33107	38432.026988679976	2.707710031308
0	33118	38439.723393632186	0
0	33138	38462.777386433495	0
0	33153	38490.973152990628	0
0	33186	38552.544575406983	0
0	33198	38570.390981117551	0
0	33244	38626.500395810908	0
0	33276	38641.477822718945	0
0	33293	38671.85564929888	0
0	33307	38689.937210135969	0
0	33333	38709.119037323256	0
0	33355	38729.919576691513	0
0	33369	38735.82528987401	0.375094232482
0	33377	38737.325424043953	0
0	33391	38751.234574678727	0
0	33418	38779.846837320395	0
0	33443	38831.73240499254	0
0	33450	38837.495836063133	4.136359302652
0	33475	38855.394674152589	0
0	33528	38906.647769454256	0
0	33543	38923.045372213196	16.397244939804
0	33547	38932.29641096069	21.769487171232
0	33563	38958.56294338936	0
0	33571	38978.007591317041	0
0	33583	38983.784081301747	4.525739845029
0	33587	38993.426687337969	10.169559689943
0	33608	39025.171835037359	0
0	33613	39030.306308573226	0
0	33631	39051.816670134242	0
0	33643	39070.102661691562	0
0	33669	39107.140426045224	0
0	33681	39145.300804211501	0
0	33717	39179.13849820891	0
0	33727	39185.03726728634	0
0	33733	39196.001344087487	7.25357070077
0	33744	39205.425757295693	0
0	33752	39208.73818409111	0
0	33759	39212.827644501228	0
0	33773	39230.872108589855	0
0	33789	39249.047176919601	0
0	33808	39271.341248787474	0
0	33812	39274.130587121193	2.662782854821
0	33846	39304.196424027675	0
0	33863	39331.280696396408	0
0	33932	39398.435071691358	0
0	33948	39418.817406873628	0
0	33953	39424.055473305259	0
0	33979	39460.139587181127	0
0	33985	39463.015006944501	0.12905443751
0	34009	39500.134470508488	0
0	34014	39501.547705203998	0
0	34021	39505.795717987547	0
0	34026	39509.132776837397	0
0	34058	39557.712404543534	0
0	34063	39558.864612619863	0
0	34089	39585.503650043248	0
0	34114	39596.20610466984	0
0	34121	39609.895876985981	0
0	34132	39620.890760605655	5.823232646406
0	34137	39624.169076509096	2.414236338149
0	34143	39627.4323855946	0
0	34163	39669.223951219397	0
0	34168	39674.988333075103	0
0	34183	39692.218740146167	0
0	34187	39696.184814450104	0.304931918198
0	34216	39744.823632518797	0
0	34223	39755.534256045843	0
0	34228	39761.198343505224	0
0	34233	39763.798731640007	0
0	34243	39796.83589723344	0
0	34253	39817.79692034086	0
0	34261	39828.218832823015	0
0	34274	39834.00534267995	0
0	34296	39858.910220455338	0
0	34306	39900.119813741456	0
0	34318	39914.569464943623	0
0	34333	39937.854241629058	0
0	34338	39962.179108724323	0
0	34343	39962.915888991722	0
0	34347	39967.32907112089	0.327315128326
0	34363	39982.02900019486	0
0	34378	39991.015333471511	0
0	34391	40010.000917153368	0
0	34398	40018.03822798114	0
0	34406	40026.451009677663	0
0	34413	40032.155991396657	0
0	34443	40062.863925284241	0
0	34448	40066.390268836354	0
0	34463	40077.61054953197	3.982079033615
0	34468	40087.703364756371	10.535415518551
0	34470	40089.622656519593	10.778521492873
0	34498	40141.693534012015	0
0	34503	40148.136288389962	0
0	34538	40177.161098646181	0
0	34549	40184.312947392953	0
0	34563	40199.079614153619	0
0	34582	40219.492451573376	0
0	34604	40234.256400375283	0
0	34612	40239.257166005264	0
0	34668	40302.203547779683	0
0	34698	40343.560073167523	0
0	34736	40384.157070054927	0
0	34740	40386.551241885235	0.0343743451
0	34753	40400.245586267412	0
0	34784	40452.088369430069	0
0	34836	40527.122842094418	0
0	34848	40539.354377013955	0
0	34853	40556.622991813611	0
0	34858	40558.142626432556	0
0	34865	40560.333946264721	0.608240771445
0	34917	40612.389498338464	0
0	34933	40620.952194589094	0
0	34943	40626.409910411284	0
0	34956	40649.680808690708	0
0	34960	40657.039195398732	5.363497330302
0	34983	40674.317660426137	0
0	35019	40747.599058365629	0
0	35028	40766.186540764726	0
0	35043	40789.543705670507	0
0	35048	40791.109643562443	0
0	35066	40808.765073936492	0
0	35103	40834.936116698589	17.711937368824
0	35105	40844.612657205649	19.87484743717
0	35107	40846.537929913281	16.277004927542
0	35141	40878.94596613166	0
0	35176	40936.049239577993	0
0	35188	40942.606346132224	0
0	35192	40949.264481133525	1.896934728114
0	35197	40958.058338400492	8.570815332152
0	35203	40966.903753474395	0
0	35218	40992.400480667492	0
0	35234	41018.331050318759	0
0	35256	41044.700478978598	22.92454499391
0	35261	41052.851352068926	28.653696622117
0	35266	41056.886496362233	26.532204832476
0	35276	41065.747679652692	10.113754219655
0	35281	41068.340576146978	1.333313149031
0	35288	41073.990658798915	4.901188847219
0	35296	41078.051739970832	0
0	35308	41090.563173525618	0
0	35318	41102.644969692435	0
0	35334	41107.817017529512	0
0	35342	41110.297565726301	0
0	35354	41124.445391847245	0
0	35361	41127.6152394866	0
0	35389	41154.355272979675	17.918582110223
0	35391	41156.73127879026	20.250977408807
0	35393	41160.561402775216	21.850023492324
0	35397	41169.603928055974	27.014254511352
0	35418	41192.256410144244	0
0	35468	41244.873850108766	0
0	35484	41271.277655690285	0
0	35511	41307.466773697589	0
0	35517	41317.091489252841	9.109439211845
0	35523	41322.493330163243	0
0	35528	41326.396540237124	0
0	35532	41331.384636435772	3.873012731306
0	35540	41347.017139280476	12.047989417206
0	35586	41394.785786598735	0
0	35593	41396.509109704019	0
0	35623	41432.149516990389	0
0	35649	41480.832830069767	0
0	35658	41482.926973753529	0
0	35676	41516.245896226171	0
0	35686	41524.946799753578	0
0	35693	41546.891914658226	0
0	35704	41572.705276783141	0
0	35729	41594.680809217846	0
0	35739	41617.730430819718	0
0	35758	41651.505008791864	0
0	35763	41664.851254779275	0
0	35773	41681.571738120827	0
0	35785	41689.080320911441	3.712253418163
0	35803	41712.245957267131	0
0	35863	41797.447901334689	0
0	35886	41844.128053944722	0
0	35911	41873.31980163629	0
0	35921	41886.202683174863	0
0	35925	41888.270998462133	0.95482412132
0	35945	41894.746622545185	0
0	35961	41909.715357973912	0
0	35968	41912.714958385799	0
0	35972	41915.539122137514	0.371399691491
0	35997	41928.914471085406	0
0	36008	41942.1571157729	10.722992610577
0	36016	41946.905455465485	10.048978450128
0	36023	41949.278322332878	4.991353239495
0	36048	41981.000036482538	0
0	36052	41998.565024370744	2.54585500968
0	36064	42005.32584441705	0
0	36074	42011.506670029279	0
0	36078	42017.204170404345	4.294096493089
0	36133	42071.869039341664	0
0	36151	42101.730126593392	0
0	36167	42124.992217774224	0
0	36184	42156.593476310027	0
0	36234	42205.700862229424	0
0	36242	42213.862555041947	0
0	36260	42225.289982670907	0
0	36324	42302.557222796616	0
0	36368	42341.929613974525	0
0	36381	42362.784941196207	0
0	36386	42368.456820160991	0
0	36390	42368.874098790207	0.360850947355
0	36398	42379.453967804401	3.099893145472
0	36407	42382.578671877114	0
0	36412	42386.050965293539	0
0	36432	42394.724100394394	0
0	36449	42404.479437716294	5.669322809118
0	36458	42407.797408475373	6.499601157879
0	36481	42435.275102773818	0
0	36498	42443.356115384101	0
0	36503	42447.705393847483	0
0	36510	42451.203390713389	0.190950744776
0	36517	42462.296335094693	3.456800869463
0	36526	42463.786461330435	0
0	36533	42472.040352767636	0
0	36553	42494.065489141974	0
0	36557	42495.091633700602	0.382698082377
0	36566	42509.727133192911	0
0	36586	42529.342145970457	0
0	36601	42537.49994037168	0.800897409597
0	36607	42538.429008158873	0
0	36621	42546.3899492102	0
0	36625	42559.601916853858	1.135850085913
0	36646	42590.349621957636	0
0	36656	42607.768195795908	0
0	36693	42658.067652843644	0
0	36698	42697.890157360265	0
0	36702	42701.151187371078	0.137670153651
0	36708	42728.340035930231	0
0	36718	42763.501024079842	0
0	36740	42805.669206630491	0
0	36760	42822.872508614072	10.289829569239
0	36776	42843.355025173975	0
0	36786	42845.189313059393	0
0	36791	42854.471659627088	0
0	36815	42870.805193107874	14.651047470005
0	36833	42880.85655608702	2.732108762304
0	36835	42881.469046155889	2.590092184605
0	36840	42889.271318490692	6.766368610159
0	36863	42910.216693498449	0
0	36876	42933.580858628222	0
0	36882	42940.539922129727	4.725453789576
0	36887	42946.136893997322	2.497856502446
0	36898	42963.129814498646	0
0	36903	42974.937344947565	0
0	36911	42990.864561225763	0
0	36926	43000.908360657615	0
0	36946	43056.141623275842	0
0	36953	43068.780964917165	0
0	36986	43097.915714144656	0
0	36998	43125.266183589221	0
0	37011	43157.474328156521	0
0	37024	43164.656095358756	6.776656895486
0	37042	43175.344244566063	12.543152092732
0	37048	43177.717089857941	0
0	37057	43183.755192639831	4.243700677289
0	37063	43187.293180523856	0
0	37068	43189.913856259779	0
0	37078	43207.700051410298	0
0	37085	43211.088819529993	2.212066698824
0	37087	43211.742422378115	2.668046299483
0	37092	43212.543584238425	0.268325266382
0	37118	43260.878816304014	0
0	37122	43277.206316546536	8.990569089077
0	37134	43284.804872515644	0
0	37161	43298.853977936893	0
0	37166	43308.515371963998	0
0	37191	43329.226577037892	0
0	37209	43353.46166842369	0
0	37236	43383.48102208724	0
0	37248	43400.623626259092	0
0	37258	43409.187960614688	4.880381385031
0	37260	43409.601647095744	3.182773851755
0	37262	43411.399025078454	3.4459586481
0	37295	43433.364416906329	0
0	37322	43457.509934193392	0
0	37338	43473.013847541391	0
0	37353	43487.454083356731	0
0	37389	43544.075139556346	0
[...]
3	47630	55358.472581445908	14.815452140977
3	47635	55365.131644646893	2.710521271008
3	47643	55379.231780356527	2.377236537085
3	47645	55381.7528973411	4.100962734896
3	47650	55391.240150152574	0.401229427034
3	47658	55401.650420787734	8.744359416449
3	47663	55411.120167177768	12.44725345679
3	47668	55412.821376075567	0.206461012547
3	47670	55413.683793838719	7.099576735474
3	47693	55432.368639232203	1.907683190662
3	47695	55434.640928657687	10.3574305692
3	47703	55439.793113791451	4.378357340436
3	47705	55442.760894401608	18.378439737153
3	47710	55448.939978289849	31.018927585111
3	47712	55450.639467223609	31.078787053312
3	47717	55457.801513676436	31.251520405121
3	47722	55461.372560652936	9.032205561142
3	47730	55464.849747054675	4.729184791751
3	47741	55470.270374105299	6.557242274256
3	47743	55470.402038584231	5.077526052322
3	47748	55471.790057808541	3.13730873994
3	47750	55475.148319306998	44.350886100624
3	47755	55480.066292452431	8.41606458938
3	47757	55480.448984588756	5.104892384875
3	47762	55487.124581571096	1.523031067991
3	47764	55490.281840886051	53.116427240296
3	47766	55497.744148897881	50.979474918313
3	47771	55503.897260896621	2.696311952093
3	47776	55508.713166182709	1.914850027178
3	47778	55513.305511157965	49.043191186429
3	47780	55513.857642606401	47.886489337852
3	47788	55543.273243031137	15.534822100307
3	47790	55546.467005094805	10.693865849592
3	47795	55556.07118584129	5.334303098203
3	47800	55564.675026430636	2.175639604408
3	47808	55594.842128930689	2.914312649068
3	47816	55599.292791073452	2.800493751605
3	47818	55599.471969187413	0.59889978771
3	47826	55603.304369608115	1.952389868464
3	47828	55603.398424270602	2.828665108278
3	47839	55615.382999766873	0.13031055089
3	47841	55615.511335893706	3.262566149168
3	47852	55619.984012963976	32.999788421327
3	47857	55623.795471367244	0.632627948322
3	47859	55626.443863422843	22.59564050789
3	47864	55627.570089157537	10.148593698946
3	47869	55634.093314068733	15.708202575892
3	47871	55634.266879667048	7.043690577106
3	47873	55636.988082036353	17.671855509842
3	47881	55639.550655900274	1.640452896708
3	47886	55641.06524820231	13.217573329559
3	47891	55642.214316671949	0.329483811775
3	47893	55647.571395574448	6.958911751656
3	47901	55660.067282165611	0.9780632814
3	47903	55661.908737036915	22.808834432112
3	47905	55663.675650702741	10.005839779869
3	47910	55665.298680191727	0.220219911275
3	47918	55726.325698377555	12.937410509574
3	47923	55728.88417322992	9.794911283179
3	47931	55739.116575599198	11.54626350248
3	47933	55741.775439774635	9.628619214883
3	47935	55742.350104866122	6.100413657507
3	47940	55756.41757971391	12.36101453776
3	47948	55773.995594901015	3.82799409917
3	47950	55776.319416317734	3.97205303883
3	47955	55782.0225394017	0.438579750927
3	47963	55787.389859134895	2.049749755295
3	47971	55793.318612818234	4.108703984734
3	47976	55797.376557213371	7.781783815462
3	47978	55798.111757184192	4.540831033874
3	47983	55807.464693165282	23.766312238611
3	47991	55823.20076059792	0.605828306533
3	47996	55829.136302203442	24.430898009029
3	48001	55830.774530305772	12.946502693477
3	48003	55831.042900995771	1.715408294744
3	48005	55834.053354604056	6.189975240738
3	48010	55846.166423911176	2.963188691455
3	48015	55851.287585437621	4.006716824098
3	48020	55860.014094132412	4.099898869957
3	48025	55870.131696044144	2.693675938746
3	48030	55888.757013561075	1.889792754548
3	48038	55922.447167889799	0.603205039831
3	48040	55925.052787868031	8.671496439265
3	48045	55937.249376685623	1.477216439802
3	48056	55943.285522049555	0.308913583974
3	48058	55943.315427619346	5.511675163874
3	48060	55945.484036195305	2.785289873739
3	48065	55952.988580935312	0.173366780963
3	48073	55967.655723648749	12.571278216642
3	48075	55969.556417636974	5.727275019835
3	48089	55981.283880082545	3.932064251426
3	48097	55984.735294868923	5.603382188061
3	48099	55988.570503538431	4.129249898037
3	48104	55990.867175780595	9.866257678457
3	48106	55994.077857506906	13.099202706769
3	48108	55995.455603403033	13.683998530959
3	48110	56001.31127599554	10.754730163824
3	48124	56017.988505213662	12.392887092532
3	48126	56020.37373890477	2.845591400009
3	48131	56027.420054208096	13.969799326719
3	48133	56034.5604067362	7.900133819163
3	48138	56036.818407055893	22.769619797041
3	48140	56038.200386707084	2.051925054481
3	48145	56042.448745913529	0.886416929728
3	48150	56045.115895858434	2.417798781002
3	48155	56050.131816430485	1.383849513361
3	48160	56062.556457596428	4.110806008126
3	48165	56068.685553782592	5.550239385199
3	48176	56081.367584913511	10.668440932672
3	48184	56091.587142328076	12.829856514344
3	48186	56092.061616041421	18.897851380882
3	48188	56092.541160500223	9.989950540572
3	48196	56095.778713166278	2.132010150037
3	48201	56098.190705309308	12.648832031576
3	48203	56100.212439567392	6.257712342523
3	48214	56107.666220890681	4.151954587267
3	48219	56113.228302029956	15.701460846877
3	48221	56114.626162020688	11.790301145924
3	48226	56121.759209855154	13.787134746221
3	48228	56122.193670212593	15.697826631061
3	48236	56128.498639282679	11.73755755791
3	48238	56130.249667073327	7.142325072041
3	48243	56130.415952104611	0.151467082623
3	48245	56130.534939030197	5.544807821044
3	48259	56138.67847456045	2.250241944541
3	48264	56142.132684154996	10.718406103303
3	48269	56147.020215935341	13.764199473416
3	48271	56154.93858341188	18.135192108945
3	48273	56157.704278724406	18.334163303469
3	48281	56158.281452576954	0.239590344101
3	48283	56162.000687176447	18.550889768519
3	48285	56163.858168205036	5.926278780595
3	48293	56167.683829050081	1.668007735283
3	48295	56173.167591749155	7.47743708548
3	48300	56176.978247018487	0.72865079787
3	48308	56185.191652708653	0.29778388832
3	48313	56189.096507269403	8.301509710594
3	48321	56189.438281332303	3.718452226297
3	48323	56193.731245429473	4.391968084412
3	48331	56201.803534193437	12.558508142386
3	48339	56208.471060219217	11.779895969064
3	48341	56209.102002519448	3.42177473574
3	48349	56214.62206926804	16.849452985332
3	48351	56215.970372417899	13.045017877052
3	48353	56216.517771414509	3.909694752816
3	48355	56217.821308088289	3.457976207994
3	48369	56244.462590426792	3.680045493315
3	48377	56248.999743257978	9.658175833108
3	48379	56249.003115068432	6.055320560271
3	48381	56254.896511085083	8.600366057977
3	48383	56256.149041897801	13.344242481955
3	48388	56258.669038410567	11.732632110367
3	48396	56260.512625625902	4.278625947885
3	48398	56261.4973929166	1.422708575101
3	48400	56265.959008039543	6.761996200901
3	48408	56275.876859328703	8.482936663781
3	48416	56283.819765732405	4.161843906592
3	48424	56286.044563632926	1.689385731523
3	48426	56287.796905368879	17.710276619338
3	48428	56288.951401343181	3.595617401301
3	48433	56292.331003586404	9.857623722615
3	48438	56296.620741591202	4.866220035192
3	48443	56299.421315313654	6.977056603364
3	48445	56301.847917655709	4.273236392619
3	48450	56305.324370398728	1.594881127897
3	48455	56326.038301806364	1.127902582621
3	48460	56336.770026111307	0.944430658542
3	48465	56344.097971560816	0.800118782646
3	48473	56350.110228563684	0.550015898217
3	48475	56354.760091798266	8.089467504089
3	48480	56363.700674563205	1.991464340609
3	48485	56380.42926429553	1.907814848175
3	48493	56407.547772629668	9.794162127579
3	48498	56410.712197873631	4.643386081987
3	48500	56412.705382014105	3.931082286255
3	48505	56434.800758558559	2.710206408714
3	48510	56444.598832014439	9.064045621765
3	48515	56453.535451235152	2.225242490422
3	48520	56460.785016192602	1.365285141093
3	48525	56473.65976629837	0.927843628846
3	48530	56477.254525865651	3.070306404453
3	48547	56507.000024020536	12.889839705034
3	48549	56507.457512934857	3.267234076083
3	48554	56512.097752192668	4.538279766316
3	48562	56519.520180435581	1.901344381352
3	48564	56524.592750317767	20.132299090563
3	48572	56526.062413729445	0.567420308712
3	48574	56526.942237231319	1.129628063724
3	48576	56527.722566514247	21.908258310157
3	48578	56529.470953399488	22.54750007733
3	48580	56530.754085565495	11.855068115618
3	48585	56544.216179632615	9.708273865063
3	48590	56548.802712047635	1.68122075708
3	48601	56570.973783967994	4.133630973104
3	48603	56570.997117518706	2.554769766456
3	48608	56573.14982634849	0.46852283019
3	48616	56583.481726425119	0.911637844333
3	48618	56584.285569568336	15.231363481167
3	48620	56584.929962882161	3.772629224585
3	48625	56594.472530052596	2.834056087634
3	48633	56598.685308941903	3.368752216687
3	48635	56600.171779882181	2.261280266681
3	48640	56604.848942731737	3.615794062241
3	48651	56625.868372639305	9.301321954322
3	48656	56629.067179315936	1.940988951196
3	48658	56632.760693715718	11.133399223824
3	48660	56646.729827063663	23.67708932961
3	48668	56662.633465490447	6.217176140649
3	48670	56663.453252657774	5.949321778031
3	48678	56673.288175278202	2.407902191059
3	48683	56675.830242671727	3.959592752259
3	48685	56682.629132733949	8.66576686904
3	48696	56692.168181628746	4.096513618878
3	48701	56695.113006669241	11.839120688941
3	48712	56697.965555307085	2.812879999608
3	48714	56698.517973772913	10.543785417775
3	48716	56701.177727930299	6.799225398731
3	48718	56704.396698406003	9.249294761706
3	48723	56707.034868369343	9.383628351001
3	48728	56715.491469444427	8.598336188935
3	48733	56719.278626107388	7.261595603916
3	48735	56721.787290568995	4.475082452399
3	48746	56731.662146542281	0.920379151528
3	48748	56734.33605462382	3.452447373587
3	48753	56735.927330083308	0.268189349095
3	48755	56737.213591315601	5.771626825314
3	48760	56738.399697904336	0.457499963311
3	48768	56751.96112153792	2.324838912782
3	48776	56758.039657176311	7.854483050784
3	48784	56761.938779549562	5.603439947848
3	48786	56764.262191918064	7.117895473572
3	48794	56767.465588748646	8.166324027667
3	48799	56772.374809497377	5.470785822817
3	48804	56772.975273452501	12.547173970862
3	48806	56774.598073416979	7.318532274347
3	48808	56775.349507276572	4.361221601271
3	48816	56778.547731843215	6.006230315989
3	48818	56783.012997077136	6.63104927579
3	48820	56791.650349010285	13.627497257695
3	48831	56807.631223906168	4.011774514477
3	48833	56808.237515907433	2.032894295526
3	48838	56818.793641548772	16.571252364381
3	48858	56842.99777490653	25.616152625496
3	48863	56845.331935584995	7.13444585192
3	48868	56846.282885035942	26.121393347624
3	48873	56846.631761457871	0.56928741375
3	48875	56846.87134320994	2.322068839183
3	48877	56850.197330270347	30.930028338677
3	48885	56854.284429634523	20.452143350791
3	48887	56855.165920123894	1.131932403344
3	48889	56857.046684007806	5.702982499626
3	48894	56864.193248750121	29.923902659414
3	48896	56864.488036118652	0.488747288964
3	48898	56865.883903799254	26.238497334251
3	48900	56866.101495024691	19.69797132798
3	48905	56884.923957093845	5.656965710475
3	48913	56887.038199234259	1.154303603998
3	48915	56888.779200199174	2.113339378957
3	48920	56901.465444769592	4.522999600548
3	48925	56902.762599345663	0.103066384471
3	48930	56914.989650272611	2.622044071921
3	48938	56923.580352650306	3.652744360099
3	48940	56924.785279877221	2.898565056979
3	48945	56931.842661454502	1.479661538754
3	48953	56954.210969859541	1.408616076319
3	48961	56961.072228093022	9.052693201451
3	48963	56961.610580917496	5.00623623615
3	48968	56972.945516400695	13.784244459538
3	48976	56984.084871126432	8.523052397693
3	48978	56985.967985746769	21.996013853699
3	48980	56986.535787935636	3.825892624547
3	48988	56998.796015877319	3.478084817344
3	48990	57010.326021921319	12.399462189938
3	48995	57020.517768469363	3.841308604762
3	49000	57024.257198639953	2.320522866156
3	49005	57026.07711070696	1.475268497168
3	49013	57029.572788385064	0.679928602479
3	49015	57030.730268046209	3.574443373823
3	49023	57037.231450486506	3.020966759095
3	49025	57042.314405421571	9.708944199052
3	49036	57065.328034791483	4.036703400558
3	49038	57066.687493230924	12.214549044167
3	49046	57075.677262118071	10.83991410371
3	49048	57076.036330758511	1.820831842474
3	49056	57078.086447944941	2.47950633208
3	49058	57078.823440399867	2.502122461297
3	49063	57079.999117124278	0.6584852432
3	49068	57086.809425367921	8.8272817749
3	49073	57093.690985773668	12.569363170474
3	49075	57099.742217897044	9.387987268165
3	49080	57104.374856406251	2.107473097625
3	49085	57110.913179312725	0.392049046099
3	49093	57120.845600741504	0.164419225451
3	49098	57124.108630767047	5.102278905916
3	49100	57127.514159890616	6.344620127656
3	49105	57141.641353464661	0.694759853107
3	49110	57143.900038179524	0.370160483789
3	49118	57147.933709465276	0.113509184086
3	49120	57149.353842975663	3.20563948589
3	49125	57161.610103516288	3.210894406822
3	49136	57176.13297004928	5.347850267335
3	49144	57190.593284914565	1.834965170975
3	49146	57199.842099770942	27.852142030969
3	49148	57202.230438417242	36.040298124351
3	49150	57206.600099861859	29.192965474397
3	49158	57227.998484709995	10.800471701718
3	49163	57240.386965497168	13.662826701364
3	49168	57247.90590784271	6.926986106922
3	49170	57255.624336250132	19.480009395419
3	49175	57261.322515765927	2.490761888013
3	49186	57272.003104168117	8.196965216889
3	49188	57275.013253809696	6.890640863281
3	49190	57276.783744226145	11.694477544529
3	49201	57281.840982768958	3.907498026867
3	49206	57283.609246041219	4.610896997534
3	49211	57290.56751416001	11.147583400557
3	49219	57292.835931727936	0.732375492046
3	49221	57299.30492808861	16.886651215188
3	49223	57299.484997873636	13.56955278595
3	49225	57299.829707574602	7.297676199716
3	49230	57306.893819081967	3.679897618218
3	49235	57311.78741097475	3.773232813118
3	49249	57325.961314216008	12.137440820775
3	49251	57326.489048198214	10.801631560347
3	49256	57327.846708928606	8.018697583143
3	49258	57328.523591754085	2.03033551082
3	49266	57331.625676457986	9.035818833071
3	49268	57332.701001423109	2.66437307973
3	49273	57333.048596100578	0.104433095227
3	49275	57339.090967360963	7.765716086345
3	49286	57344.456195987134	0.058298917652
3	49288	57351.737307918788	8.800310266995
3	49296	57356.645707111282	12.615293261944
3	49301	57361.330841711457	1.710179142069
3	49306	57370.915405540013	17.989918043452
3	49308	57372.070002490659	17.239712026431
3	49310	57373.917290218446	8.688172448259
3	49315	57380.580466775335	1.978908669662
3	49320	57382.693039581074	0.865842056813
3	49328	57388.203898933654	2.585330418697
3	49330	57388.842969949792	2.306417898894
3	49335	57414.19056066474	8.062343092307
3	49346	57424.077880959305	2.574726215133
3	49348	57424.551103656326	5.565151813931
3	49359	57431.017778461666	8.273396903037
3	49361	57431.994465120786	4.772973816576
3	49366	57435.44904672089	0.63208495975
3	49368	57435.743214094323	8.430047204531
3	49370	57438.433665915632	9.631044452725
3	49378	57445.420257301123	6.246645125598
3	49383	57445.768486727506	0.739919580057
3	49388	57460.240158771756	3.736764294628
3	49393	57462.647333064991	17.21676743644
3	49398	57474.434317120499	11.866277340981
3	49400	57475.418430384048	4.752749208755
3	49405	57494.621359990543	6.759859781718
3	49413	57513.459335258165	1.121599462496
3	49415	57513.763373741281	11.038138259081
3	49420	57524.554435021539	4.210663425153
3	49425	57529.352439077946	0.428164006703
3	49433	57531.434672232676	0.117010166421
3	49435	57531.536713123261	0.995226625126
3	49443	57544.168031246187	8.304131291546
3	49448	57545.16303685714	1.183103548389
3	49450	57550.582262658396	6.310890814747
3	49458	57557.821226267648	1.877181196811
3	49469	57565.675185973185	11.165852157898
3	49471	57569.056507501615	8.331760278951
3	49473	57569.638171879189	5.879597208608
3	49478	57581.273806984849	16.817066580924
3	49483	57583.680613594228	5.187188860958
3	49485	57588.895501910568	6.704002795791
3	49502	57602.708379414006	11.045630291861
3	49504	57606.787131275172	8.309954634418
3	49506	57607.865436792925	7.642761089271
3	49511	57614.004614345393	13.323359625961
3	49513	57622.313663057213	12.409408402699
3	49515	57627.863666648047	28.472054257629
3	49520	57628.813702739824	0.742439242888
3	49531	57637.900452602731	0.836301114567
3	49536	57646.15570355843	10.378327085425
3	49538	57648.352018083966	4.174736932136
3	49543	57648.931812071317	0.163099627231
3	49545	57654.850580114527	19.366599507632
3	49553	57658.431569987741	2.145513890622
3	49558	57662.64532633733	5.446073336477
3	49560	57667.506038950341	5.483426839833
3	49571	57688.114830308224	13.901060819532
3	49573	57688.397131441617	9.974625285858
3	49581	57695.894721302041	8.783512007802
3	49586	57703.320155392312	3.280996904571
3	49588	57706.349479429257	14.0505144414
3	49593	57709.739593894502	15.686350906787
3	49595	57711.503962567841	2.089654819224
3	49600	57724.053388849058	7.524635285077
3	49605	57726.894193726653	2.075210048651
3	49610	57742.738272271934	6.740175956588
3	49621	57750.105967021804	6.199422865407
3	49629	57752.103244949798	1.178480808247
3	49631	57752.543914376024	8.667774194969
3	49633	57753.69066736963	2.684085882118
3	49635	57757.883417418323	12.827678743761
3	49646	57772.460127857647	7.265615718768
3	49648	57773.467160164401	7.8598501003
3	49653	57777.907365741162	2.12748356667
3	49661	57789.531050596668	6.703189766644
3	49663	57799.021802671171	29.784244038017
3	49665	57802.670846708314	21.970071259822
3	49673	57815.050867896139	8.57104439928
3	49678	57829.905333331161	22.351685734729
3	49680	57831.271941711541	15.300269044175
3	49685	57843.596187542597	1.497013590891
3	49690	57844.468415283951	0.159803175645
3	49695	57859.474055579541	2.645072325923
3	49700	57865.115135757644	1.616575577839
3	49705	57874.110529897932	0.151913993544
3	49710	57880.140736385068	1.992029802782
3	49715	57882.158965095149	0.127819164974
3	49720	57888.117116126103	1.320174737827
3	49731	57897.594713670646	0.12093998399
3	49739	57908.508307175183	15.524786743873
3	49741	57908.91134715633	12.467521957005
3	49746	57911.918220150189	10.06109761803
3	49748	57914.56134753887	9.745967261232
3	49750	57915.222308240905	4.523527304337
3	49755	57921.263848704021	0.211880318076
3	49766	57928.199761700496	1.522351216248
3	49768	57928.693098485164	1.585874123533
3	49770	57931.189825207889	3.080333546406
3	49781	57935.959690942578	2.597977161931
3	49786	57941.145080952455	5.639039317633
3	49794	57944.7330284031	8.873821187072
3	49796	57945.609435936428	4.213240716349
3	49801	57952.418714736069	14.647589991648
3	49803	57954.852691108798	12.03335738808
3	49808	57957.570419935671	7.177275390717
3	49813	57965.903772645232	10.318422685378
3	49815	57966.902209741012	5.682473329223
3	49820	57981.149486639178	5.253202367307
3	49825	57992.031059324391	1.348238205238
3	49830	57994.322344799572	0.540794097832
3	49841	58010.709075326579	6.129779138864
3	49843	58018.488278883443	22.205459994325
3	49848	58021.018322515828	1.247967730766
3	49853	58024.989768459112	1.864460388526
3	49861	58033.324989367494	29.545076689943
3	49863	58033.396138007675	0.181885423123
3	49868	58040.234694492052	7.997363574414
3	49870	58046.457382115891	12.999058687626
3	49875	58053.242204667974	1.424029956117
3	49880	58057.77363128519	0.453228385474
3	49891	58067.192893729037	1.357340988045
3	49893	58069.187817941282	9.248048288581
3	49895	58071.061343791685	6.346036041983
3	49903	58079.089756775031	3.864268407541
3	49905	58083.373634457984	6.992519991054
3	49913	58098.980515061279	10.220388855582
3	49924	58104.953955530647	4.501345452829
3	49929	58107.94018766132	6.639553001333
3	49931	58108.098533075427	2.887469989275
3	49933	58112.780629678322	13.831140222131
3	49935	58119.282505766454	15.123229318621
3	49946	58137.198157554664	1.041418290668
3	49951	58139.706528232453	2.621214367309
3	49953	58140.432240219813	1.178950714226
3	49955	58140.928444015801	21.264135248728
3	49963	58151.997761039421	1.403263336287
3	49965	58155.197706539506	4.04532535299
3	49970	58177.872939240362	2.789428197725
3	49975	58188.118079336669	6.389447269409
3	49980	58190.54229965355	0.025794688034
3	49985	58198.011010575962	0.273826607746
3	49993	58211.540059990275	0.406259256755
3	49998	58214.060623049446	7.484510148114
3	50000	58215.288826850394	1.228237046864
