version 2
run Testbench_1-389-20170516-19:18:30-54144
attr configname Testbench_1
attr datetime 20170516-19:18:30
attr experiment Testbench_1
attr inifile omnetpp.ini
attr iterationvars $0=100
attr iterationvars2 "$0=100, $repetition=89"
attr measurement $0=100
attr network Toll_road
attr processid 54144
attr repetition 89
attr replication #89
attr resultdir results
attr runnumber 389
attr seedset 389
param **.numBooths 3
param **.queue[*].serviceTime exponential(5.11s)
param **.source.interArrivalTime exponential(5.854s)
param **.source.numJobs 1000

vector 0  Toll_road.queue[0]  jobsProcessed:vector  ETV
attr interpolationmode  none
attr source  queueingTime
attr title  "jobs processed, vector"
vector 1  Toll_road.sink  lifeTime:vector  ETV
attr interpolationmode  none
attr title  "lifetime of arrived jobs, vector"
attr unit  s
0	3	2.014951535829	0
0	8	11.057017804922	0
0	12	15.791897228193	2.838755917381
0	17	23.811272332485	7.143378498512
0	23	25.974290160548	0
0	27	31.703123895632	3.718228782463
0	32	42.969950288006	10.683172064279
0	40	53.353611230284	3.722196365626
0	45	57.968494566645	7.805117054587
0	56	67.373846506863	12.981465197753
0	61	71.522376589498	10.456733466403
0	63	73.351456684157	9.905358394452
0	65	77.78587875503	11.514051755232
0	73	85.688007664068	14.527653424467
0	84	105.023751694044	25.700264171851
0	86	105.557018622005	25.064022715376
0	88	106.160493634246	18.230879139037
0	90	106.546121975128	17.542417113474
0	95	108.930611264081	9.107032165891
0	97	113.336952552663	6.539278187391
0	102	116.810463838494	2.524954028704
0	113	130.709293328385	8.017977604953
0	118	132.822641805747	5.952521833443
0	120	133.822947715829	3.356435461815
0	125	138.555666353537	7.02640620256
0	133	144.975352701885	7.133944256768
0	135	145.7234056138	2.025003385445
0	137	146.499511609421	2.775719062548
0	142	158.205385580005	5.907410836679
0	153	170.297265409072	10.027523345316
0	158	179.875475969826	15.140995074571
0	160	190.131488856563	23.034691508416
0	171	200.424255425136	23.145136713981
0	176	204.063021300861	10.643563624255
0	181	211.372481846397	15.166151476511
0	192	217.366603739075	20.182105961336
0	194	220.512381260776	19.6000640535
0	202	233.683047218803	28.37907458959
0	204	236.488210219128	24.831618482595
0	221	243.819814447155	29.278947282414
0	223	246.122042495385	28.798707784032
0	231	251.300958102163	30.178280743225
0	233	252.556272305144	30.890099497539
0	235	255.251962970597	18.48324551706
0	237	257.064528269933	20.01883063185
0	239	259.690137998957	22.513940710788
0	244	263.349960614887	24.877734458314
0	255	275.341965446662	33.364015008584
0	257	277.858354462924	29.010328879315
0	262	281.203801767974	31.503789150314
0	264	282.174525306567	19.140994762917
0	269	284.312881780363	13.291960504684
0	277	295.947777263919	24.220156802018
0	285	304.025222482618	32.176448050424
0	287	305.210230501263	25.591070559124
0	289	310.346880020913	27.408725480161
0	294	313.603135402468	24.118014603521
0	296	314.174526083488	19.587878063341
0	301	317.158889987233	16.305083452179
0	303	321.93353386923	19.346442777225
0	305	328.301438577814	14.799484512665
0	307	328.303262708963	13.347294039396
0	313	343.72806029557	0
0	326	354.401363726848	10.07876820636
0	328	357.374604503482	9.920003103086
0	330	359.048858265585	7.628148418788
0	332	359.518376645376	8.018638106489
0	338	368.444141581455	0
0	342	371.15319897119	1.091249304573
0	348	379.234259315548	0
0	361	394.555902573254	10.983577372503
0	363	401.825792059153	15.871252509402
0	368	404.405507924479	14.722142939688
0	370	406.059315533956	13.042329561373
0	372	410.185308810476	7.823765421322
0	378	416.280840760504	0
0	382	419.658582203291	2.196125677538
0	388	421.266066990678	0
0	392	429.988246477685	0.870741819276
0	398	440.079803714087	0
0	403	459.300011994436	0
0	408	491.322468053568	0
0	413	501.962565222343	0
0	420	507.150519728867	2.240771872441
0	422	507.285131693512	1.113516017996
0	436	525.780874437117	18.073779082825
0	444	533.762803830653	23.468570622053
0	446	536.754330284404	26.024467831884
0	448	537.513287167645	20.018720679901
0	453	551.077841295371	19.892277722596
0	458	556.186349659952	23.470072560543
0	463	563.951799304119	16.822995224134
0	468	568.465940502164	14.648375299944
0	473	570.539512568858	10.560013046446
0	475	577.012886755098	11.403404860376
0	486	583.46157848082	14.309809208952
0	491	585.841345172151	6.918047403247
0	494	595.423371064937	15.886232196611
0	496	603.149975544111	22.783620237751
0	498	607.339764316982	22.233656591021
1	5	3.162799494026	1.147847958197
1	13	15.791897228193	4.734879423271
1	18	23.811272332485	10.858131021673
1	20	24.623740758198	7.955846924225
1	28	31.703123895632	5.728833735084
1	33	42.969950288006	14.985055174837
1	41	53.353611230284	21.066833006557
1	46	57.968494566645	8.337079701987
1	57	67.373846506863	17.210468994805
1	62	71.522376589498	17.129995280388
1	64	73.351456684157	12.285813561062
1	66	77.78587875503	14.339780465325
1	74	85.688007664068	19.41618066427
1	85	105.023751694044	33.863397454443
1	87	105.557018622005	26.233531099812
1	89	106.160493634246	25.667497727617
1	91	106.546121975128	18.616507479919
1	96	108.930611264081	19.926906402427
1	98	113.336952552663	13.513373454473
1	103	116.810463838494	10.012789473222
1	114	130.709293328385	16.423783518595
1	119	132.822641805747	10.131326082315
1	121	133.822947715829	6.952827743525
1	126	138.555666353537	8.089154099523
1	134	144.975352701885	13.446092550908
1	136	145.7234056138	7.881997168683
1	138	146.499511609421	2.801109381066
1	143	158.205385580005	14.481593033132
1	154	170.297265409072	17.999290665746
1	159	179.875475969826	19.60573390607
1	161	190.131488856563	25.397007961308
1	172	200.424255425136	33.327458076989
1	177	204.063021300861	26.783902589706
1	182	211.372481846397	17.953024169791
1	193	217.366603739075	21.160273369189
1	195	220.512381260776	23.327883483037
1	203	233.683047218803	32.770730011527
1	205	236.488210219128	31.184237589915
1	222	243.819814447155	32.163222710622
1	224	246.122042495385	31.581175330644
1	232	251.300958102163	33.97762339081
1	234	252.556272305144	31.433594946206
1	236	255.251962970597	33.585790162992
1	238	257.064528269933	20.295810816396
1	240	259.690137998957	22.644440360874
1	245	263.349960614887	26.173763326718
1	256	275.341965446662	36.869739290089
1	258	277.858354462924	35.880404024846
1	263	281.203801767974	32.355776184365
1	265	282.174525306567	32.474512688907
1	270	284.312881780363	21.279351236713
1	278	295.947777263919	24.92685598824
1	286	304.025222482618	32.297602020717
1	288	305.210230501263	33.361456069069
1	290	310.346880020913	30.727720078774
1	295	313.603135402468	30.664980861716
1	297	314.174526083488	24.689405284541
1	302	317.158889987233	22.572241967086
1	304	321.93353386923	21.079727334176
1	306	328.301438577814	25.714347485809
1	308	328.303262708963	14.801308643814
1	310	340.548665084945	25.592696415378
1	327	354.401363726848	10.673303431278
1	329	357.374604503482	13.052008982994
1	331	359.048858265585	11.594256865189
1	333	359.518376645376	8.097666798579
1	335	365.409219531575	13.909480992688
1	343	371.15319897119	2.709057389735
1	345	373.138039855852	3.076090189235
1	362	394.555902573254	15.321643257706
1	364	401.825792059153	18.253466858402
1	369	404.405507924479	18.450968374728
1	371	406.059315533956	16.375950549165
1	373	410.185308810476	17.168322837893
1	375	412.848035383495	10.486491994341
1	383	419.658582203291	3.377741442787
1	385	420.4404308525	2.977974326747
1	393	429.988246477685	8.722179487007
1	395	431.95297974165	2.835475083241
1	400	441.061998040613	0.982194326526
1	405	462.339701646004	3.039689651568
1	410	491.407477338563	0.085009284995
1	421	507.150519728867	5.187954506524
1	423	507.285131693512	2.375383837086
1	437	525.780874437117	19.609258761601
1	445	533.762803830653	26.055708476361
1	447	536.754330284404	26.460097075804
1	449	537.513287167645	26.783424715125
1	454	551.077841295371	33.583274807627
1	459	556.186349659952	25.000786087177
1	464	563.951799304119	31.23552220471
1	469	568.465940502164	21.337136422179
1	474	570.539512568858	16.721947366638
1	476	577.012886755098	17.033387232686
1	487	583.46157848082	17.852096586098
1	492	585.841345172151	16.689575900283
1	495	595.423371064937	16.500073296033
1	497	603.149975544111	23.612836675785
1	499	607.339764316982	26.973409010622
1	501	613.002814391612	27.896706665651
