version 2
run Testbench_1-460-20170516-19:18:43-53524
attr configname Testbench_1
attr datetime 20170516-19:18:43
attr experiment Testbench_1
attr inifile omnetpp.ini
attr iterationvars $0=125
attr iterationvars2 "$0=125, $repetition=60"
attr measurement $0=125
attr network Toll_road
attr processid 53524
attr repetition 60
attr replication #60
attr resultdir results
attr runnumber 460
attr seedset 460
param **.numBooths 3
param **.queue[*].serviceTime exponential(5.11s)
param **.source.interArrivalTime exponential(5.854s)
param **.source.numJobs 1000

vector 0  Toll_road.queue[0]  jobsProcessed:vector  ETV
attr interpolationmode  none
attr source  queueingTime
attr title  "jobs processed, vector"
vector 1  Toll_road.sink  lifeTime:vector  ETV
attr interpolationmode  none
attr title  "lifetime of arrived jobs, vector"
attr unit  s
0	3	12.239151188711	0
0	8	24.873628886104	0
0	12	27.129401755839	1.280492172064
0	18	32.544077663438	0
0	22	37.449332721253	0.905749082864
0	33	49.56837069879	10.155963053971
0	35	50.428064514864	5.796362088688
0	43	59.446173562275	13.988225464147
0	45	62.864162111324	10.873629799085
0	47	64.093353384333	6.231652276013
0	53	72.645015152447	0
0	58	81.234141015147	0
0	62	85.433674589861	4.05617371457
0	67	91.394808900996	0.417279406782
0	73	95.975431594226	0
0	78	98.8856441566	0
0	82	115.434947046042	6.917542610971
0	87	125.189272347061	1.281913004014
0	93	132.897340878198	0
0	103	139.413248330956	5.88932931144
0	105	139.772112165965	5.551793569684
0	116	150.069773967645	15.692981683948
0	124	166.38341836804	25.248325176051
0	132	173.843529895173	32.475229633636
0	134	177.330623192429	30.535253346663
0	142	195.662444954488	43.781374774117
0	144	195.947889502768	42.050986584381
0	149	201.447770836804	34.93803405883
0	151	202.233713377077	31.891563765738
0	156	205.964977690415	16.06144147866
0	158	209.754996311266	14.263403146479
0	166	213.159413128425	11.956583744962
0	171	216.617153793006	13.344620314678
0	188	243.387838040534	32.767865086315
0	193	246.634734387924	33.522566194359
0	195	247.940106471322	31.61104288678
0	197	256.309105690538	32.364152607463
0	205	262.29546600136	37.642567312684
0	210	263.875788089273	28.020328678157
0	215	268.588625067728	30.26084742758
0	226	285.032566265478	43.398320546087
0	237	287.507961130733	41.747471637316
0	245	304.268019101121	45.35477223459
0	250	309.337526305747	50.300558951804
0	255	311.706255170625	48.123903493949
0	257	312.673704138356	48.05337111876
0	259	315.903548250463	47.029467921656
0	264	319.539557373987	50.619882032088
0	269	328.318469571088	49.826760338545
0	274	329.049904226841	43.356236429558
0	279	329.996961721291	42.942155556797
0	281	331.382677425039	43.976169172434
0	283	336.576210868515	45.845591045026
0	288	344.843383116217	51.511776821291
0	290	351.288142607156	45.120602334404
0	295	359.854150424723	48.309147561647
0	297	360.194833143757	41.27818390407
0	311	373.630054872553	50.901997109803
0	316	375.575680762798	46.585921741715
0	324	380.793697573052	51.712521944495
0	329	383.654236900303	42.696595975096
0	331	384.880155137456	28.399415301622
0	339	390.824019828649	29.549541794502
0	341	392.315323610025	30.788755947131
0	343	392.570709240371	28.034735611901
0	348	396.993651435295	25.177627039116
0	356	405.103613144024	30.530070487753
0	358	405.362050011632	29.105546520528
0	360	416.230307422598	36.168125167769
0	362	418.248857882008	35.224297860258
0	370	428.81944844892	40.764924684089
0	372	428.898726498408	39.410590311032
0	389	443.429463453997	47.116990034917
0	391	449.755266141987	49.542379076271
0	393	451.964513277638	49.567417761329
0	395	453.75357539145	25.580816543763
0	400	462.698017743518	34.468377803009
0	402	465.362918454969	35.825634744115
0	410	476.934196819626	40.253518256219
0	412	476.947556643343	39.617512403743
0	414	477.533718409704	37.8732606933
0	419	478.601475106335	37.980862806873
0	424	487.891330215233	30.095882741011
0	426	498.155798285186	29.157179415717
0	428	500.593763006844	28.957933950537
0	433	504.856804864163	26.628712270891
0	444	513.1654635834	31.043771450425
0	449	514.972584102137	10.718318427735
0	451	517.748686667392	8.326008672553
0	456	533.52030894781	23.02450693678
0	461	540.471290052553	29.634206401299
0	463	543.204214375939	29.843562804462
0	465	545.189526652456	14.930248943671
0	467	548.433418567296	8.260712386593
0	472	551.990325668782	1.314136265256
0	480	561.024826573344	1.463063335082
0	482	561.542989567235	0.816299329312
0	487	566.207003095411	4.257711617228
0	493	576.672161389715	0
0	498	587.786837798411	0
0	503	612.185360169861	0
0	507	613.48365758112	0.196518385017
0	512	616.409829583297	0.150268740415
0	518	625.471584818628	0
0	522	630.448874375633	4.480121243419
0	530	632.698786538339	0.955716957798
0	535	641.02136909099	8.349193389557
0	552	654.085602189866	15.809575761684
0	554	654.808275500144	13.287153875998
0	556	655.125986157691	10.776781129382
0	561	658.644638297926	12.995835355516
0	584	676.106218804605	27.622041026693
0	586	676.652831287377	27.034761866898
0	591	685.120317664596	29.063063523478
0	593	687.977585755471	26.334478360115
0	598	689.659865965144	27.843283677824
0	600	703.453732796482	40.355902364835
0	602	703.48125222629	39.927549634206
0	611	718.548525609976	50.168368414801
0	613	735.4495245428	65.057351203014
0	615	735.613743786632	59.807515825697
0	617	741.943414664327	60.002000223551
0	619	743.700849020926	55.592442203748
0	621	750.355198251846	43.061161214666
0	623	751.114249720361	43.064425238252
1	5	16.889871519199	4.650720330488
1	13	27.129401755839	2.255772869735
1	15	30.732912849432	4.884003265657
1	23	37.449332721253	4.905255057815
1	34	49.56837069879	13.024787060401
1	36	50.428064514864	11.015656870045
1	44	59.446173562275	14.814471136099
1	46	62.864162111324	17.406214013196
1	48	64.093353384333	12.102821072094
1	50	72.607176239841	14.745475131521
1	55	73.986355794982	1.341340642535
1	63	85.433674589861	4.199533574714
1	68	91.394808900996	10.017308025705
1	70	95.68515837716	4.707628882946
1	75	98.188824951677	2.213393357451
1	83	115.434947046042	16.549302889442
1	88	125.189272347061	16.67186791199
1	90	128.70669800123	4.799338658183
1	104	139.413248330956	6.515907452758
1	106	139.772112165965	6.248193146449
1	117	150.069773967645	15.849455371364
1	125	166.38341836804	32.006626084343
1	133	173.843529895173	32.708436703184
1	135	177.330623192429	35.962322930892
1	143	195.662444954488	48.867075108722
1	145	195.947889502768	44.066819322397
1	150	201.447770836804	47.550867918417
1	152	202.233713377077	35.723976599103
1	157	205.964977690415	35.622828079076
1	159	209.754996311266	19.851460099511
1	167	213.159413128425	17.667819963638
1	172	216.617153793006	15.414324409543
1	189	243.387838040534	40.115304562206
1	194	246.634734387924	36.014761433705
1	196	247.940106471322	34.827938277757
1	198	256.309105690538	39.980042105996
1	206	262.29546600136	38.350512918285
1	211	263.875788089273	39.222889400597
1	216	268.588625067728	32.733165656612
1	227	285.032566265478	46.70478862533
1	238	287.507961130733	45.873715411342
1	246	304.268019101121	58.507529607704
1	251	309.337526305747	50.424279439216
1	256	311.706255170625	52.669287816682
1	258	312.673704138356	49.09135246168
1	260	315.903548250463	51.283215230867
1	265	319.539557373987	50.66547704518
1	270	328.318469571088	59.398794229189
1	275	329.049904226841	50.558194994298
1	280	329.996961721291	44.303293924008
1	282	331.382677425039	44.327871260545
1	284	336.576210868515	49.16970261591
1	289	344.843383116217	54.112763292728
1	291	351.288142607156	57.95653631223
1	296	359.854150424723	53.686610151971
1	298	360.194833143757	48.649830280681
1	312	373.630054872553	54.713405632866
1	317	375.575680762798	52.847623000048
1	325	380.793697573052	51.803938551969
1	330	383.654236900303	54.573061271746
1	332	384.880155137456	43.922514212249
1	340	390.824019828649	34.343279992815
1	342	392.315323610025	31.040845575878
1	344	392.570709240371	31.044141577477
1	349	396.993651435295	32.457677806825
1	357	405.103613144024	33.287588747845
1	359	405.362050011632	30.788507355361
1	361	416.230307422598	39.973803931494
1	363	418.248857882008	38.186675627179
1	371	428.81944844892	45.79488842717
1	373	428.898726498408	40.844202733577
1	390	443.429463453997	53.941327266621
1	392	449.755266141987	53.442792722907
1	394	451.964513277638	51.751626211922
1	396	453.75357539145	51.356479875141
1	401	462.698017743518	34.525258895831
1	403	465.362918454969	37.13327851446
1	411	476.934196819626	47.396913108772
1	413	476.947556643343	40.266878079936
1	415	477.533718409704	40.203674170104
1	420	478.601475106335	38.941017389931
1	425	487.891330215233	47.270717915771
1	427	498.155798285186	40.360350810964
1	429	500.593763006844	31.595144137375
1	434	504.856804864163	33.220975807856
1	445	513.1654635834	34.937370990128
1	450	514.972584102137	32.850891969162
1	452	517.748686667392	13.49442099299
1	457	533.52030894781	24.097630952971
1	462	540.471290052553	29.975488041523
1	464	543.204214375939	32.367130724685
1	466	545.189526652456	31.828875080979
1	468	548.433418567296	18.174140858511
1	473	551.990325668782	11.817619488079
1	481	561.024826573344	10.348637169818
1	483	561.542989567235	1.981226328973
1	488	566.207003095411	5.480312857488
1	490	569.448936427904	7.499644949721
1	495	577.428201175781	0.756039786066
1	500	593.582593367351	5.79575556894
1	508	613.48365758112	1.298297411259
1	513	616.409829583297	3.122690387194
1	515	623.681678015077	7.422117172195
1	523	630.448874375633	4.977289557005
1	531	632.698786538339	6.730033406125
1	536	641.02136909099	9.278299510449
1	553	654.085602189866	21.413426488433
1	555	654.808275500144	16.532249071962
1	557	655.125986157691	13.604864533545
1	562	658.644638297926	14.295433269617
1	585	676.106218804605	30.457415862195
1	587	676.652831287377	28.168653509465
1	592	685.120317664596	35.502248244117
1	594	687.977585755471	31.920331614353
1	599	689.659865965144	28.016758569788
1	601	703.453732796482	41.637150509162
1	603	703.48125222629	40.383421794643
1	612	718.548525609976	54.994823017892
1	614	735.4495245428	67.069367347625
1	616	735.613743786632	65.221570446846
1	618	741.943414664327	66.137186703392
1	620	743.700849020926	61.75943458015
1	622	750.355198251846	62.246791434668
1	624	751.114249720361	43.820212683181
1	626	752.184519822255	44.134695340146
