version 2
run Testbench_2-54-20170508-12:31:09-124632
attr configname Testbench_2
attr datetime 20170508-12:31:09
attr experiment Testbench_2
attr inifile omnetpp.ini
attr iterationvars ""
attr iterationvars2 $repetition=54
attr measurement ""
attr network Toll_road
attr processid 124632
attr repetition 54
attr replication #54
attr resultdir results
attr runnumber 54
attr seedset 54
param **.numBooths 3
param **.queue[*].serviceTime exponential(5.11s)
param **.source.interArrivalTime exponential(5.854s)
param **.source.numJobs 1000

vector 2  Toll_road.queue[2]  jobsProcessed:vector  ETV
attr interpolationmode  none
attr source  queueingTime
attr title  "jobs processed, vector"
vector 3  Toll_road.sink  lifeTime:vector  ETV
attr interpolationmode  none
attr title  "lifetime of arrived jobs, vector"
attr unit  s
vector 1  Toll_road.queue[1]  jobsProcessed:vector  ETV
attr interpolationmode  none
attr source  queueingTime
attr title  "jobs processed, vector"
vector 0  Toll_road.queue[0]  jobsProcessed:vector  ETV
attr interpolationmode  none
attr source  queueingTime
attr title  "jobs processed, vector"
0	23	27.550762955267	0
0	38	41.555218651085	0
0	56	67.947976012417	0
0	63	74.91125648752	0
0	81	82.388556339231	0
0	102	107.934783229145	3.321599105528
0	116	112.548089346347	0
0	122	123.039143621346	1.295974100094
0	138	165.6305037866	0
0	151	189.060114382233	0
0	156	191.295681783064	0
0	166	199.209024378842	0
0	191	222.670090640782	0
0	214	236.693987904047	0
0	229	251.541198371243	0
0	244	257.371019967088	0
0	332	405.651526569356	0
0	347	410.702163109449	2.106188037621
0	372	432.024688736998	1.064778316979
0	427	484.84064671007	0
0	444	514.211209720475	0
0	463	570.328924175587	0
0	478	599.237861007246	0
0	551	679.409591924227	0
0	566	687.560279968042	0
0	582	695.059052568993	0
0	603	706.42576604944	0
0	658	783.658781734952	0
0	662	786.70188019828	1.644140815558
0	673	806.825033613202	0
0	678	809.542442748275	0
0	706	845.054047321581	0
0	724	857.223425075647	0
0	734	868.361136529826	0
0	750	876.089549511968	0
0	762	883.778114101568	0
0	769	890.60140811066	0
0	774	893.630441794469	0
0	805	918.369893645464	22.357858612722
0	810	929.65320331848	24.971976528553
0	815	933.356719128665	9.509096410304
0	828	945.303824331864	0.936170918855
0	838	947.441913196321	1.963155825099
0	854	956.075937999407	6.28425189258
0	856	956.926144097788	6.542318022941
0	860	965.032202637183	12.140086646986
0	872	973.564036933238	6.631152956087
0	878	984.106177971155	0
0	886	985.872507904447	0
0	893	999.511471203806	0
0	903	1005.263680074866	2.334150207013
0	926	1035.410662416928	0
0	946	1066.325282625158	0
0	959	1081.22621792637	0
0	969	1090.535328806244	0
0	974	1100.932575638079	0
0	986	1109.188790911218	5.049401488045
0	999	1126.27862185366	0
0	1023	1161.252092468427	0
0	1027	1162.462984330387	0.830896871055
0	1061	1213.141792811182	0
0	1066	1213.296764380919	0
0	1072	1218.967589856395	2.898903330017
0	1083	1223.526388559055	0
0	1088	1225.091275783837	0
0	1109	1250.540503173532	0
0	1120	1254.885933014614	0.372217005552
0	1127	1258.859444592726	3.846959640806
0	1148	1294.325845424665	0
0	1163	1326.016428716674	0
0	1183	1352.191426794423	0
0	1199	1360.113061203104	0
0	1218	1381.55021896752	0
0	1237	1394.082244657159	0
0	1243	1399.62305806921	4.715033542343
0	1288	1468.253795772586	0
0	1323	1512.237929483322	0
0	1338	1536.456806499489	0
0	1363	1566.241657577765	0
0	1367	1572.241786431847	4.176497887677
0	1395	1607.026047794022	0
0	1434	1658.271351708922	0
0	1448	1680.860994052898	0
0	1481	1704.840622898261	0
0	1494	1714.641190769967	0
0	1518	1745.599341719632	0
0	1525	1748.480807654932	2.711390699247
0	1531	1752.802198624268	0
0	1543	1758.877515892323	0
0	1548	1760.947677389064	0
0	1568	1794.927734139391	0
0	1588	1817.668716828996	0
0	1638	1872.89013417463	0
0	1650	1879.223659288275	4.161743732234
0	1660	1886.171763313907	6.240200533448
0	1670	1901.807454027798	4.503851698671
0	1687	1912.34022617237	0
0	1731	1939.672787129454	0
0	1737	1942.175999990339	0.094866169751
0	1759	1969.28065767944	0
0	1801	2015.780189318158	0
0	1806	2016.011226687267	0
0	1838	2052.94750483959	0
0	1843	2063.637028028168	0
0	1853	2073.431084625765	0
0	1857	2078.752600730604	0.713361557762
0	1883	2119.186051761199	0
0	1892	2129.500268378129	7.645770615341
0	1908	2159.254273946344	0
0	1942	2196.32210946186	0
0	1959	2208.859398398926	0
0	2001	2239.811109726882	0
0	2064	2279.29504989344	0
0	2074	2286.48459294067	0
0	2082	2292.797547299267	1.483157816743
0	2098	2306.427308353804	0
0	2102	2318.206635302889	7.429828112964
0	2108	2328.669130421228	0
0	2138	2403.401048096612	0
0	2148	2428.279752757617	0
0	2164	2436.529941588372	0
0	2186	2457.515652987543	0
0	2211	2481.420145765676	0
0	2231	2502.055496954506	0
0	2249	2532.413421592076	0
0	2259	2542.178966596133	0
0	2284	2566.021240950409	0
0	2312	2584.074030247019	0
0	2332	2590.774711201377	0
0	2346	2596.201257123444	0
0	2378	2625.729014797738	0
0	2391	2641.262310886722	0
0	2398	2659.129331773587	0
0	2402	2662.905272114491	2.884027399484
0	2418	2677.513162518434	0
0	2446	2713.157665753653	0
0	2453	2717.843743529519	0
0	2471	2732.505865816094	0
0	2478	2737.210550082493	0
0	2498	2754.469708626524	0
0	2503	2769.624124313615	0
0	2508	2782.947447386056	0
0	2515	2787.954704398036	4.223505629442
0	2536	2820.930772395436	0
0	2571	2893.36934432854	0
0	2588	2921.887871674897	0
0	2609	2942.565866033099	0
0	2613	2944.533450356117	0.34545083639
0	2626	2952.393337710851	0
0	2644	2967.129454828415	0
0	2659	2977.299146718704	0
0	2669	2986.98365443893	0
0	2680	2994.369144093147	0
0	2686	3001.462354670813	5.08913177443
0	2728	3069.880674885883	0
0	2733	3088.697966902537	0
0	2766	3170.768879984406	0
0	2781	3184.361733392688	0
0	2785	3191.350823289385	0.72987930067
0	2796	3203.332969700831	0
0	2813	3209.20892460397	0
0	2823	3215.24948592527	5.456282211322
0	2835	3234.265713013975	13.512169203294
0	2846	3245.490011416947	0
0	2883	3292.53581954232	0
0	2901	3301.742898987499	0
0	2921	3322.391698979544	0
0	2943	3342.047358729073	0
0	2948	3344.44084002799	0
0	2958	3349.283004217235	0
0	2986	3377.847195632538	0
0	2993	3388.035765532553	0
0	3003	3406.898088893064	0
0	3008	3411.388064022059	0
0	3025	3426.508605561214	0
0	3038	3444.173283338086	16.303995373968
0	3055	3455.631896809298	8.142831292006
0	3060	3459.183387423168	5.168007590361
0	3071	3482.003930932808	0
0	3093	3525.771883499474	0
0	3106	3561.300416527086	0
0	3118	3564.381023599709	0
0	3161	3666.830380866477	0
0	3169	3670.926158514127	0
0	3178	3676.898063186082	0
0	3188	3696.5710333299	0
0	3198	3712.258098307007	0
0	3203	3719.559833250615	0
0	3213	3729.058625958835	4.97444158475
0	3215	3731.557464685572	6.210200870315
0	3222	3740.505085450092	1.88858311972
0	3244	3773.230386729378	0
0	3253	3781.36961031629	0
0	3257	3786.406136008592	0.462431000007
0	3262	3788.175548880947	0.271467562199
0	3298	3850.248994647805	0
0	3303	3865.939891598332	0
0	3350	3904.923394038002	0
0	3355	3912.135315496377	0
0	3381	3931.679765946887	0
0	3407	3950.524353144745	0
0	3418	3955.272790180581	0
0	3433	3961.801895598394	0
0	3458	4003.16874972183	0
0	3472	4007.339393649275	1.499600591115
0	3478	4008.856140630313	0
0	3511	4091.121230777755	0
0	3521	4117.304456591725	0
0	3535	4138.674388834374	5.621522579684
0	3546	4142.674362795994	0
0	3561	4168.894803411379	0
0	3588	4181.669526239795	0
0	3593	4197.197290025074	0
0	3608	4230.01859339519	0
0	3618	4255.570970904474	0
0	3626	4271.747361348729	0
0	3651	4286.934760710658	0
0	3678	4301.895696068169	0
0	3696	4335.197695375372	0
0	3710	4353.203634880072	3.270641189157
0	3721	4365.437160364323	0
0	3730	4371.611618729793	3.452588684059
0	3766	4413.58915800234	0
0	3771	4420.601092573194	0
0	3778	4426.991911139572	0
0	3819	4504.202731050093	0
0	3826	4511.568721270949	5.103144715096
0	3834	4516.195918516439	0
0	3839	4521.874536687212	0
0	3862	4540.659324859724	0.2091068426
0	3875	4549.64705585774	7.91064995646
0	3877	4552.732744009714	7.486868279824
0	3893	4589.312427883799	0
0	3908	4616.893436690979	0
0	3913	4620.946341424942	0
0	3918	4624.463593201055	0
0	3938	4657.914216406159	0
0	3948	4663.554289976246	0
0	3952	4680.613851683194	14.271863731279
0	3963	4715.458567213257	0
0	3998	4751.89288132508	0
0	4013	4779.112866833564	0
0	4029	4789.513840159856	0
0	4038	4795.385922842586	0
0	4048	4797.952809372511	1.744610833926
0	4063	4807.306180865126	0
0	4068	4819.96485800609	0
0	4072	4827.156700689673	6.29816811213
0	4083	4842.771163728601	0
0	4106	4867.056164088082	0
0	4121	4889.124554975644	0
0	4133	4895.154159934896	0
0	4141	4898.709645492667	0
0	4163	4908.421194986824	8.857547860357
0	4170	4911.569472710819	6.81237739535
0	4188	4949.723563392344	0
0	4198	4958.174142896495	0
0	4206	4960.212579162429	0
0	4241	5001.345588772121	0
0	4261	5016.92203465616	0
0	4266	5023.272445423931	0
0	4273	5032.992840908224	0
0	4293	5069.275972736272	0
0	4306	5078.262696302947	0
0	4321	5087.120553616864	0
0	4335	5091.46747510871	2.891057215269
0	4337	5091.891292346575	3.170291227032
0	4359	5113.482917657399	8.31792723206
0	4366	5117.051818520037	11.024394098429
0	4386	5130.829337658975	0
0	4398	5139.743693483994	0
0	4402	5141.176186689517	1.145148968718
0	4407	5148.789181118951	5.434111730233
0	4433	5185.503003160715	0
0	4511	5284.970050793236	0
0	4539	5325.313606882897	0
0	4548	5339.96365146718	0
0	4563	5382.156384694174	0
0	4568	5391.858277484326	0
0	4591	5419.605027823179	0
0	4616	5486.752411734164	0
0	4623	5493.910225994988	0
0	4668	5568.73321876066	0
0	4724	5655.712217369287	0
0	4738	5666.861797136901	0
0	4758	5696.227182720323	0
0	4765	5703.030023217848	3.740491555861
0	4767	5705.650711552052	4.968855800588
0	4773	5713.915044554225	0
0	4793	5756.464064368072	0
0	4816	5781.55647782694	0
0	4829	5794.350257182991	0
0	4844	5816.068876532267	0
0	4848	5817.871705054323	0.623300812455
0	4856	5821.98022424971	2.980766243516
0	4872	5841.873773649543	21.768742531259
0	4893	5859.868314433536	0
0	4901	5867.903245946433	0
0	4921	5894.056021128504	0
0	4941	5930.786843603412	0
0	4956	5949.074237222611	0
0	4960	5954.788543209318	2.902264453812
0	4971	5960.933383291722	0
0	4975	5965.726869115044	4.649692524523
0	4987	5969.673692436144	0
0	4994	5977.810360736024	0
0	5028	6027.444004317608	0
0	5051	6057.817929933209	0
0	5083	6093.036235533591	0
0	5097	6108.145610430917	0
0	5118	6135.738887746902	0
0	5131	6151.768217008622	0
0	5151	6172.573330125686	0
0	5163	6188.534684883943	0
0	5172	6199.605059394114	2.753818264008
0	5188	6213.543540215608	0
0	5204	6227.152818238437	0
0	5217	6245.268241288945	0
0	5226	6255.220268446662	7.932171195374
0	5236	6258.133389383328	0
0	5248	6274.87884345079	0
0	5260	6286.573341854498	11.20261516882
0	5284	6316.553682299949	0
0	5299	6332.530296345446	0
0	5313	6357.769932252921	0
0	5318	6358.675178589451	0
0	5341	6392.679286240746	0
0	5357	6400.965563747414	0
0	5368	6412.018049234486	9.156099634077
0	5373	6412.542452725896	2.239043317694
0	5383	6416.679701775017	0
0	5388	6420.656344266243	0
0	5413	6440.943946718832	0
0	5417	6446.513109397795	0.34666775115
0	5427	6452.211994401747	1.24732443864
0	5443	6461.349162021918	0
0	5463	6501.599909674426	0
0	5494	6543.788970645928	0
0	5501	6561.190050178924	0
0	5564	6636.142104012495	0
0	5577	6638.571340760162	0
0	5600	6655.054932039135	0
0	5613	6664.157853549446	0
0	5633	6689.813637283345	0
0	5646	6707.203108285145	0
0	5653	6725.62978194846	0
0	5657	6727.801665729837	1.419796574843
0	5679	6738.515401309928	0
0	5691	6746.026988519218	0
0	5743	6814.978312833181	0
0	5763	6831.116152263072	0
0	5771	6849.189146207159	0
0	5783	6853.089080929174	3.786104133641
0	5788	6856.122497138468	4.908844061316
0	5828	6902.756543735072	0
0	5836	6912.137613210684	0
0	5851	6943.481798623531	0
0	5879	6959.057877510905	0
0	5885	6963.52750513581	1.267759455314
0	5896	6980.944171371667	0
0	5903	7004.958529956328	0
0	5913	7009.724016437468	2.714736298224
0	5915	7010.698397456895	1.764216491258
0	5943	7043.344829631547	0
0	5961	7068.767576642843	0
0	6010	7113.182656295091	0
0	6020	7125.514986912371	0
0	6046	7145.631306763042	0
0	6062	7155.522027579278	0
0	6080	7186.15037343105	0
0	6088	7190.102427252567	1.632356571499
0	6123	7234.195688504258	0
0	6133	7246.06267921102	0
0	6146	7286.10580395307	0
0	6150	7289.140329588458	1.734244535396
0	6162	7304.45197674643	12.011406467605
0	6178	7337.593771907235	0
0	6185	7352.179357308416	14.248943790369
0	6190	7359.463430709012	7.615681224715
0	6213	7387.735555596415	0
0	6228	7406.496066057874	0
0	6253	7417.341655439551	0
0	6273	7436.875269397633	0
0	6316	7500.172310484514	0
0	6322	7504.495644695508	1.778308412077
0	6327	7506.962156349092	0.342825232262
0	6356	7549.139025333655	0
0	6361	7551.973712162135	0
0	6376	7578.043246259784	0
0	6399	7603.21789668409	0
0	6408	7610.148710050826	0
0	6412	7612.007996646077	1.029261307304
0	6434	7629.968419684131	0
0	6453	7646.953879028379	0
0	6461	7653.226649947698	0
0	6471	7671.087450849162	0
0	6491	7688.510460629257	0
0	6501	7697.362622847365	0
0	6510	7710.494668303107	12.627425235246
0	6523	7726.495357463871	25.108209225524
0	6530	7728.055635340942	3.397711603585
0	6551	7743.151483642372	0
0	6560	7751.357942967631	0.739236452794
0	6568	7757.759622477241	0
0	6576	7764.605969850125	0
0	6588	7778.067268778259	8.47283951265
0	6590	7781.023934522324	5.090643553796
0	6607	7793.156071136758	0
0	6632	7813.646982867676	19.452103661514
0	6649	7822.377397043594	28.020734197809
0	6653	7823.617527573357	14.829118448356
0	6655	7825.728999008036	11.240138785551
0	6664	7828.5253264919	0
0	6708	7911.627000787884	0
0	6729	7936.704576158227	0
0	6748	7956.208810925771	0
0	6769	7976.239966711893	0
0	6787	7985.904533931547	8.344072171243
0	6802	7994.2256401902	9.670713012223
0	6804	7995.884009855468	7.672114926161
0	6811	8002.783395504996	12.15866185444
0	6821	8007.791490344465	8.746236672799
0	6833	8021.701785610064	0
0	6840	8026.849803316628	4.773545814717
0	6848	8031.114740561966	8.776721005343
0	6871	8050.358278554299	0
0	6899	8072.300854971391	0
0	6926	8100.263767667067	24.420565300187
0	6936	8113.31563486197	31.051743694035
0	6938	8113.708937744492	27.19456102015
0	6940	8113.838797192255	13.227825749166
0	6942	8117.28629738825	7.934480243077
0	6951	8125.781468164943	0
0	6967	8145.472575220669	16.06496800487
0	6999	8171.440044392983	0
0	7011	8178.483218429013	0
0	7049	8201.864457251837	0
0	7061	8212.023329042097	0
0	7099	8237.480587085203	25.301033876595
0	7112	8240.114593354387	9.335689146469
0	7121	8249.098509262632	0
0	7128	8258.408475670179	0
0	7138	8304.102497043771	0
0	7148	8314.023728467698	0
0	7153	8318.581026488944	0
0	7193	8401.534572033153	0
0	7203	8414.426803403018	0
0	7213	8464.761007270996	0
0	7218	8465.749373879277	0
0	7251	8519.141705537882	0
0	7263	8531.040119736396	0
0	7268	8536.343730565721	0
0	7306	8641.75313536618	0
0	7319	8654.362360897531	0
0	7333	8670.521606266337	0
0	7341	8681.846006101419	0
0	7364	8697.290206965492	0
0	7372	8703.196719585147	4.383495718353
0	7377	8710.526153645519	2.029229161085
0	7398	8744.811222831582	0
0	7408	8750.822674812289	0
0	7417	8759.128291185492	1.189247952279
0	7422	8760.215161818882	0.612315246481
0	7427	8764.843534860262	3.024931213601
0	7451	8784.478324270573	0
0	7462	8797.56130466905	9.375832775822
0	7468	8811.313303713377	0
0	7481	8819.287157113078	0
0	7533	8887.984618076801	0
0	7583	8948.413847544412	0
0	7587	8955.933922543086	6.990653098725
0	7595	8964.633760586403	0.890754948338
0	7600	8967.179949913663	3.010823722553
0	7607	8979.845856046675	6.160526103615
0	7633	9011.988957534126	0
0	7638	9037.510516186847	0
0	7643	9037.862990743058	0
0	7658	9060.750803216366	0
0	7691	9107.686454279839	0
0	7741	9144.856212203262	0
0	7759	9164.114573138907	0
0	7768	9177.952859272185	0
0	7780	9183.750134758758	4.530938821202
0	7782	9195.487946145325	14.069790379002
0	7788	9196.525821687242	0
0	7798	9205.551611358217	0
0	7803	9211.729569587603	0
0	7808	9218.920813127438	0
0	7813	9224.391177196868	0
0	7823	9229.53711056055	0
0	7845	9236.57954336213	0
0	7862	9260.27555013746	0
0	7876	9265.643076604937	0
0	7909	9316.049930583591	0
0	7918	9335.86115787425	0
0	7925	9337.965401070156	0.476590563944
0	7935	9348.420932850125	10.738353727807
0	7937	9354.488452630063	10.064535148855
0	7951	9364.426795185781	0
0	7958	9365.988692232544	0.478698244754
0	7966	9384.797752180383	0
0	7972	9393.191150615479	8.166103145891
0	7989	9409.143366511162	0
0	8032	9443.102479437271	0
0	8041	9445.760363925334	0
0	8048	9451.154248656737	0
0	8063	9470.074352285114	0
0	8067	9476.865693423128	4.950251095798
0	8073	9486.528523756199	0
0	8078	9503.0370322808	0
0	8083	9506.557933453675	0
0	8098	9527.754013824836	0
0	8103	9533.707496340192	0
0	8107	9534.876964351294	0.488200911968
0	8158	9576.33716723884	0
0	8163	9583.322400584478	0
0	8193	9637.806638341211	0
0	8203	9646.566558253763	0
0	8208	9651.378991939142	0
0	8218	9655.169962747249	0
0	8225	9661.490334049939	6.04293528125
0	8238	9669.502895683492	8.536129965897
0	8271	9701.567117585405	0
0	8305	9744.243582422908	25.264452998947
0	8319	9757.068507608769	26.136830283477
0	8321	9758.198203748627	1.654618594646
0	8336	9773.560554504281	16.543169655868
0	8338	9778.095636683027	19.885105007102
0	8340	9779.310960542074	11.444084570196
0	8342	9781.273047611407	7.899299443072
0	8347	9782.521864466091	0.578045814226
0	8369	9794.843112869771	0
0	8378	9801.802618021415	0
0	8434	9924.481766572785	0
0	8441	9927.263250424248	1.249172181673
0	8446	9929.564975653862	2.909553804502
0	8488	9963.59868200999	0
0	8503	9973.089679930543	2.986502644202
0	8515	9977.948831699032	5.694498456461
0	8517	9979.041398268305	5.178145131161
0	8523	9980.392711566146	0
0	8559	10004.870150280451	10.88742935161
0	8564	10008.202244758576	0.794823130272
0	8584	10024.860652846995	0
0	8594	10047.421744091059	0
0	8621	10065.993714028515	0
0	8628	10067.817470417989	1.785611279891
0	8632	10072.487490335249	5.972949400714
0	8696	10132.653755554821	0
0	8713	10145.912388960174	11.557321668323
0	8729	10152.709971838986	0
0	8759	10189.269394891627	0
0	8766	10193.036746072265	0.82549237693
0	8782	10220.275481970903	26.509308678745
0	8793	10228.569384270747	0
0	8806	10236.465882367721	0
0	8818	10257.560757295892	0
0	8829	10266.853720283913	0
0	8841	10270.152675274959	2.233477868066
0	8843	10270.378230609514	1.479513908402
0	8863	10297.599878679152	0
0	8868	10302.790922585442	0
0	8876	10318.691449767875	0
0	8893	10361.315730989568	0
0	8902	10374.877119451087	4.569580145628
0	8924	10390.340021339775	0
0	8939	10407.53772010833	0
0	8958	10415.237135078551	4.497799727209
0	8960	10415.429361546151	3.534616740285
0	8968	10421.482047849867	7.446051936101
0	8978	10424.579141429456	0
0	8983	10426.111958316606	0
0	9006	10453.229467369757	0
0	9028	10480.935396507592	0
0	9044	10489.313264049727	0
0	9078	10563.249608508891	0
0	9136	10617.434781409402	0
0	9148	10646.986989664294	0
0	9183	10686.754097819529	0
0	9193	10701.683535440861	0
0	9224	10732.850698649413	0
0	9248	10762.062558415048	0
0	9274	10792.837558781382	0
0	9293	10806.789671232897	0
0	9302	10821.990214733834	5.232692394688
0	9318	10843.165041937692	0
0	9323	10845.968760835274	0
0	9333	10857.529161716576	0
0	9338	10868.983043157185	0
0	9343	10871.717261081451	0
0	9351	10877.164572559812	0
0	9372	10887.722338846598	0
0	9393	10897.974639147609	0
0	9397	10901.924509123288	0.089856975123
0	9405	10916.798326798307	5.294799081459
0	9423	10945.461179910736	0
0	9428	10956.017658090636	0
0	9441	10979.910111497626	0
0	9458	11005.347966705936	0
0	9462	11015.940411659528	8.347598172157
0	9481	11046.502214757916	0
0	9497	11063.678521758309	0
0	9503	11065.529139778774	0.970037400584
0	9513	11071.486022828457	0
0	9520	11076.208258132078	3.520591144729
0	9546	11106.746649412063	0
0	9558	11115.845864400477	8.963663078659
0	9572	11124.986462069574	0
0	9590	11134.487434566534	8.23525508081
0	9592	11135.960022638124	2.660437545587
0	9598	11137.396065413617	0
0	9611	11144.358085031078	0
0	9633	11169.221991670409	22.792290515105
0	9646	11191.131125879616	0
0	9698	11299.800466773822	0
0	9718	11329.861569359352	0
0	9726	11355.664689476721	0
0	9736	11366.30080000514	0
0	9747	11383.249270496804	6.476033360665
0	9766	11438.83177158453	0
0	9776	11447.671947444998	0
0	9818	11494.170853505086	0
0	9823	11498.254347349731	0
0	9881	11558.559462294136	0
0	9888	11563.492080769246	0
0	9920	11582.725110592974	13.23938283287
0	9927	11588.299361418407	0.511616805821
0	9932	11597.867921157459	0.455023751645
0	9938	11598.399995353623	0
0	9951	11613.646862802639	0
0	9956	11616.610033601262	0
0	9986	11682.016275787154	0
0	10013	11699.977876724016	0
0	10038	11713.061765866492	0
0	10043	11727.404414766328	0
0	10053	11730.756628055954	0
0	10067	11738.174000918329	4.895620275802
0	10081	11751.198855439064	0
0	10087	11757.558854914338	5.904948462751
0	10096	11764.428050065615	0
0	10108	11799.660298412393	0
0	10116	11809.64220005791	0
0	10133	11822.062787051301	0
0	10158	11852.040974665224	0
0	10189	11881.999367681855	0
0	10215	11904.296636026553	0
0	10222	11919.537535522134	0
0	10253	11958.840914040262	0
0	10271	11973.977742303637	0
0	10276	11977.072114726909	0
0	10287	11985.122722875233	0
0	10306	12007.62307865964	0
0	10313	12013.663099050799	0
0	10351	12054.53474569713	0
0	10363	12073.985117744955	0
0	10378	12120.076283787221	0
0	10394	12137.693194482302	0
0	10408	12160.227196656878	0
0	10428	12182.928771437802	0
0	10436	12191.736300597908	0
0	10450	12199.926332857918	0
0	10468	12211.809164859641	0
0	10478	12221.515296665114	3.958479708389
0	10490	12225.630526521181	3.02289802504
0	10513	12237.856149921413	0
0	10544	12272.6775418649	0
0	10552	12283.623776914374	6.548991781341
0	10576	12298.478991137062	0
0	10581	12305.120599259111	0
0	10585	12311.68160807425	5.537894331082
0	10621	12366.676576498489	0
0	10632	12383.811378164581	1.45936627244
0	10638	12390.221836108322	0
0	10708	12473.17912437932	0
0	10712	12478.150334982241	2.994961814035
0	10722	12490.561538665053	2.263709857825
0	10727	12492.720224975478	0.973353194929
0	10738	12506.87099983267	0
0	10746	12545.697770677038	0
0	10758	12565.162608600219	0
0	10788	12599.798902228819	0
0	10812	12623.837269018016	0
0	10829	12635.159094113475	0
0	10835	12646.027171272906	9.09279215839
0	10841	12649.800165683363	0
0	10861	12671.152453583204	0
0	10875	12680.389729472938	4.127614758697
0	10896	12731.784136078411	0
0	10926	12755.821722404605	17.16386250163
0	10972	12797.337149905202	0
0	11038	12850.647271519631	0
0	11053	12866.14856840553	0
0	11061	12868.826615226168	0
0	11076	12880.565503008943	0
0	11087	12887.109302114968	4.347905217293
0	11113	12907.108215963957	0
0	11138	12939.592030576366	0
0	11163	12962.608985615494	0
0	11168	12965.601409587901	0
0	11172	12981.080335273939	11.58864310104
0	11181	13002.083107642525	0
0	11199	13021.140209813051	0
0	11216	13049.388738147254	0
0	11234	13067.147951350996	0
0	11253	13089.549272148062	0
0	11277	13108.104611075276	0
0	11290	13118.533431801277	7.324041659341
0	11304	13131.731477598899	4.860781644054
0	11324	13142.455752174877	14.169100085917
0	11326	13142.771061714972	14.039302535479
0	11333	13155.864378795459	22.502565413433
0	11343	13163.162716430903	27.561429223102
0	11345	13165.414496822971	17.287750108499
0	11353	13171.038475621065	0
0	11367	13180.636734116685	7.044183209415
0	11403	13237.337666326076	0
0	11410	13241.194704235532	2.469030857287
0	11438	13269.159137992516	0
0	11461	13294.6232052172	0
0	11471	13303.807088329083	0
0	11503	13368.224276286789	0
0	11518	13392.849652751326	0
0	11523	13395.835236490965	0
0	11531	13405.322680023662	0
0	11543	13433.613741930813	0
0	11558	13467.068097351029	0
0	11573	13495.505790028414	0
0	11589	13514.831420353268	0
0	11603	13519.483578848242	2.679319670805
0	11616	13526.230920235798	0
0	11648	13573.466367477953	0
0	11673	13607.9754353121	0
0	11696	13654.342419330683	0
0	11711	13670.253073495833	0
0	11733	13692.623553554039	0
0	11743	13701.09992513179	0
0	11761	13725.74106789742	0
0	11778	13745.777665456426	0
0	11788	13754.620857067947	0
0	11803	13768.854570056783	0
0	11821	13792.508072534105	0
0	11830	13801.957670771	7.38562689569
0	11843	13816.62071727749	10.939911907733
0	11866	13840.19728990301	0
0	11879	13864.501335534745	0
0	11894	13883.417582839455	0
0	11908	13920.051138344002	0
0	11912	13924.77680463705	0.283371266039
0	11928	13934.353332686055	0
0	11936	13939.053171648581	0
0	11946	13953.78987689696	0
0	11951	13960.941916858164	0
0	11963	13981.646028028898	0
0	11968	13993.479347151913	0
0	11999	14048.709724987007	0
0	12007	14055.564304472652	0
0	12018	14064.459336949067	0
0	12023	14074.396770732088	0
0	12065	14111.831743052368	0
0	12082	14123.164513545331	0
0	12092	14132.242303323492	5.257956019438
0	12103	14175.346378334111	0
0	12108	14179.410985966432	0
0	12113	14186.944698545105	0
0	12117	14187.687992813504	0.527303647238
0	12131	14204.631102161188	0
0	12153	14243.30488416555	0
0	12163	14251.000461236305	0
0	12178	14260.471020901138	0
0	12264	14353.318388535656	0
0	12274	14371.762020569272	0
0	12308	14414.886632149426	0
0	12318	14419.000509364737	0
0	12335	14435.986562399014	0
0	12363	14448.628472605287	0
0	12376	14472.822687324602	0
0	12383	14474.015817372346	0
0	12388	14490.732041252755	0
0	12408	14535.423639627717	0
0	12412	14542.857703778728	1.372503972038
0	12421	14548.915234772875	0
0	12436	14564.460152770752	0
0	12454	14591.906721680512	0
0	12489	14619.3451762877	0
0	12494	14625.498445267554	0
0	12499	14628.083263244847	0
0	12518	14649.907322593578	0
0	12546	14681.781445365579	0
0	12553	14699.829192712556	0
0	12597	14732.086716400076	0
0	12609	14739.158753181601	0
0	12638	14784.164585315167	0
0	12663	14798.554765099955	0
0	12678	14816.680568561925	0
0	12683	14834.610097388333	0
0	12693	14848.407647594559	0
0	12719	14878.56325017366	0
0	12743	14905.650589769879	0
0	12758	14925.676489200964	0
0	12763	14930.844603744929	0
0	12776	14933.411302046179	2.379474307706
0	12778	14933.985544881999	1.407401048194
0	12791	14946.565161717443	0
0	12803	14957.871658751145	0
0	12813	14970.842039630747	0
0	12826	14974.061093728156	0
0	12833	14979.657627719636	0
0	12843	15004.941123919444	0
0	12851	15011.614430385139	0
0	12857	15016.940566901791	4.877786272244
0	12866	15028.155722915463	0
0	12881	15050.58673076096	0
0	12898	15066.419769372438	0
0	12918	15078.823766612112	0
0	12941	15114.189121959509	0
0	12950	15117.32703794588	2.304725855325
0	12959	15126.052682919413	0
0	12973	15144.865557730881	0
0	12981	15161.602924885056	0
0	12991	15164.74314235367	0
0	13014	15180.285345067887	0
0	13032	15197.31430733863	0
0	13051	15211.92305272987	0
0	13084	15226.199281681205	8.262497966968
0	13094	15234.241553759926	15.855386472327
0	13099	15239.207282518954	18.711724027418
0	13101	15240.378970072097	15.896611633743
0	13103	15241.513602971353	13.484464144654
0	13105	15244.23310162669	13.475730821104
0	13107	15246.074458472102	9.715060099785
0	13124	15258.042067190793	0
0	13163	15300.978607746017	0
0	13183	15334.395179041124	0
0	13206	15356.237285495933	0
0	13218	15393.046618580552	0
0	13230	15401.360509852836	7.428838784217
0	13238	15411.874301378945	12.023488033337
0	13240	15413.083782554717	6.806405393447
0	13242	15414.949439727652	7.080033434035
0	13268	15452.564116611101	0
0	13276	15475.9437636067	0
0	13285	15481.099501214907	3.712301141189
0	13287	15481.862429271844	1.321094829383
0	13295	15487.601632575791	0.697517757784
0	13326	15526.842964145265	0
0	13335	15529.353478741902	1.174333547448
0	13343	15533.400033774096	0
0	13348	15538.91266444589	0
0	13358	15561.952202702526	0
0	13391	15627.024901070623	0
0	13396	15629.500634626168	0
0	13403	15639.045579056595	0
0	13444	15654.862192691911	0
0	13461	15662.664050426022	0
0	13473	15703.010428508309	0
0	13485	15718.97146399977	12.945407481995
0	13493	15721.528225729626	0
0	13502	15734.615607576825	0.666554663533
0	13513	15748.850286282415	0
0	13546	15807.779652257032	0
0	13552	15820.54792199556	9.442115049344
0	13561	15829.16634258384	0
0	13591	15857.430330704088	0
0	13595	15858.714977049501	0.919403702792
0	13603	15871.432744288576	0
0	13608	15877.589638442536	0
0	13613	15883.76811375329	0
0	13656	15938.907132005738	0
0	13677	15950.87764089587	4.462925459275
0	13693	15957.946039925389	11.501962863048
0	13695	15958.244653914664	11.099685929354
0	13697	15959.936797422985	10.555242558739
0	13711	15964.438066915592	0
0	13718	15983.249233885616	0
0	13723	16001.656556079448	0
0	13738	16037.782059773194	0
0	13763	16076.3510763592	0
0	13783	16093.107918572185	0
0	13804	16126.247381986008	0
0	13832	16141.462958527159	0
0	13869	16168.184586718618	0
0	13880	16183.907041484694	13.723162672589
0	13882	16186.925597001358	12.125351264186
0	13888	16197.83436398758	0
0	13918	16225.504975632919	0
0	13936	16254.042474286145	0
0	13958	16297.663029635832	0
0	13968	16307.634470500231	0
0	13988	16344.359631198031	0
0	13993	16360.639757277274	0
0	13998	16375.458849157836	0
0	14003	16380.916333075507	0
0	14026	16406.880849800507	0
0	14053	16434.712979145341	0
0	14063	16454.611745749565	0
0	14068	16457.32215165184	0
0	14078	16470.315104579096	0
0	14111	16505.039168088005	0
0	14126	16512.103167111915	0
0	14144	16523.028116802157	0
0	14153	16529.076869233398	0
0	14198	16574.61106690643	0
0	14210	16598.619802097322	23.132963256819
0	14215	16603.920625870231	11.162829740039
0	14226	16608.572472098568	0
0	14231	16613.758927667025	0
0	14248	16627.087628927897	0
0	14253	16641.006249059214	0
0	14261	16649.664591320361	0
0	14313	16701.27933667686	0
0	14318	16705.793863949499	0
0	14325	16716.495471241756	6.104633405049
0	14336	16721.307270081768	4.729235830311
0	14342	16728.011098474471	10.842750109236
0	14351	16741.900758065023	0
0	14363	16763.244609939846	0
0	14371	16796.066465191978	0
0	14375	16799.376771973018	1.761315975276
0	14394	16818.327764272095	0
0	14402	16824.229191404019	2.866176929881
0	14411	16837.606988992075	0
0	14421	16846.470587458169	1.471767404355
0	14431	16857.01159753135	0
0	14435	16858.83952226342	0.093439837752
0	14446	16863.122070068875	0
0	14471	16877.354203025408	0
0	14481	16882.976488579086	0
0	14516	16910.840739399335	0
0	14520	16913.376888658439	2.092947720574
0	14579	16967.777053370688	0
0	14595	16980.09536371739	8.861016334102
0	14603	16985.329664848019	1.787223187134
0	14621	17017.228671353845	0
0	14628	17030.211507777598	0
0	14633	17034.050285803757	0
0	14638	17037.306611213055	0
0	14663	17061.79058663799	0
0	14676	17073.783926940642	0
0	14686	17083.76265471146	0
0	14691	17091.715417559009	0
0	14698	17099.589737976457	0
0	14718	17149.378666379824	0
0	14734	17158.093641975892	0
0	14768	17232.783820804131	0
0	14778	17249.906324972248	0
0	14786	17265.306216413142	0
0	14797	17274.178391660021	7.587924322371
0	14803	17279.891815908486	0
0	14813	17292.76858730078	0
0	14833	17316.341838962228	0
0	14837	17323.603336603683	1.983502164138
0	14856	17352.208035894834	0
0	14868	17373.08505399433	0
0	14878	17410.578962957054	0
0	14892	17429.175276326153	10.73808541524
0	14921	17447.04555609049	0
0	14925	17450.012072004513	0.808111248533
0	14943	17461.255007902079	3.287937126921
0	14979	17493.463840145218	34.809186069934
0	14981	17494.316767279302	26.17106742654
0	15003	17512.394131430655	0
0	15008	17516.511412486167	0
0	15037	17565.890397746706	0
0	15046	17582.505707251654	0
0	15058	17607.946076885414	0
0	15084	17627.098343006878	0
0	15092	17632.612506633752	3.541387191741
0	15098	17634.149498235802	0
0	15107	17645.565061096865	1.591217307861
0	15115	17650.936713661746	3.814695512569
0	15126	17670.138428009609	0
0	15133	17690.797681851059	0
0	15138	17693.594560524474	0
0	15143	17703.355834921165	0
0	15162	17719.184095138139	0
0	15186	17742.479413961918	0
0	15192	17746.003685660737	3.230179646279
0	15198	17750.493310101225	0
0	15203	17760.337015294113	0
0	15214	17799.408451216901	0
0	15222	17808.117560494264	8.569021581373
0	15233	17813.330725085281	0
0	15252	17820.03792586751	0
0	15257	17823.945876108448	0
0	15278	17853.040605321404	0
0	15301	17888.351868048364	0
0	15308	17894.142104317734	0
0	15358	17958.942229813611	0
0	15363	17980.796673515214	0
0	15368	17996.326271116624	0
0	15376	18008.68638430217	0
0	15399	18037.782212327582	0
0	15407	18046.41733337042	6.168256714672
0	15418	18067.512008435252	0
0	15448	18108.170500368551	0
0	15483	18148.895317357009	0
0	15499	18175.415379686285	0
0	15509	18183.429689257249	0
0	15528	18226.021310148586	0
0	15533	18233.631783302424	0
0	15537	18239.901076599473	3.618773382841
0	15556	18260.738468324807	0
0	15573	18278.191504046264	0
0	15603	18332.404524897428	0
0	15613	18340.091010999963	0
0	15653	18407.515428216334	0
0	15676	18425.447407684714	3.276320855317
0	15698	18452.797774828709	0
0	15711	18471.771303611138	0
0	15718	18475.614132951987	0
0	15723	18484.413585818698	0
0	15751	18529.774360135944	0
0	15766	18562.337397215041	0
0	15772	18570.348648952434	1.477336754701
0	15798	18612.116125546877	0
0	15813	18626.487430771991	0
0	15821	18631.678863019088	0
0	15831	18637.504467031991	2.163723483559
0	15833	18640.291531318744	3.999594128174
0	15854	18665.63800648155	0
0	15883	18708.056243623834	0
0	15887	18710.488782256206	0.619618818898
0	15901	18715.106071777553	0
0	15923	18740.486108959922	0
0	15928	18751.502108799296	0
0	15933	18768.054445764565	0
0	15938	18779.695021035249	0
0	15976	18823.184097901015	0
0	15980	18825.43264933655	0.621168943766
0	15987	18840.985135499157	13.405151942828
0	15993	18843.389060337534	0
0	16009	18853.489684970758	0
0	16022	18866.383912899058	0
0	16047	18882.312807042895	0
0	16052	18887.062376726505	0
0	16068	18899.556400905256	7.689093327143
0	16073	18902.13686724549	1.462226812242
0	16085	18915.411621307751	12.373172476152
0	16113	18957.461324912302	0
0	16120	18964.379535034976	4.975644932233
0	16161	19021.760231109841	0
0	16174	19046.293018128958	0
0	16216	19087.337077024234	0
0	16228	19125.886684436896	0
0	16243	19166.915631645105	0
0	16263	19192.510337624526	0
0	16276	19200.568815676296	0
0	16281	19204.02327738819	0
0	16308	19222.956873853502	15.615663919972
0	16310	19223.358502642708	14.394244961315
0	16312	19225.457744132001	8.771921674238
0	16318	19239.73957455182	0
0	16353	19289.281405448561	0
0	16358	19299.170398502876	0
0	16366	19307.406763472714	0
0	16373	19314.535654844883	0
0	16391	19339.444419919138	0
0	16416	19368.094883086806	0
0	16453	19403.309844315368	0
0	16468	19418.508472298638	0
0	16483	19439.666853353233	0
0	16490	19459.896620140761	8.004660379218
0	16508	19487.32397975395	0
0	16522	19496.991567438851	1.935904411215
0	16528	19516.092815796215	0
0	16570	19577.550039001225	0
0	16578	19587.51468853304	0
0	16598	19608.331152709505	0
0	16603	19620.811632907412	0
0	16641	19675.655186277869	0
0	16658	19717.127516938041	0
0	16677	19736.525416575229	0
0	16711	19770.213010938338	0
0	16723	19778.227963660262	0.396278919993
0	16737	19797.091988386606	0
0	16771	19846.819900505888	0
0	16778	19859.721618300601	0
0	16783	19866.217772762286	0
0	16798	19882.491928845074	8.576770112894
0	16800	19883.687021994463	1.895432505545
0	16818	19925.133761890908	0
0	16831	19940.494703210491	0
0	16858	19962.763284130091	0
0	16868	19971.485562729705	0
0	16877	19976.514834128875	1.800824245022
0	16886	19983.009693719089	0
0	16893	19984.887403291151	0
0	16906	19997.880055917974	0
0	16914	20006.02806830954	0
0	16931	20017.158038990801	0
0	16943	20025.032870603336	0
0	16948	20041.667901224014	0
0	16961	20061.162720547298	0
0	16993	20083.925025534602	0
0	17001	20091.943054709715	0
0	17013	20104.512098657852	0
0	17026	20128.510156333043	0
0	17053	20169.685761611932	0
0	17068	20203.542230279864	0
0	17073	20245.854171116141	0
0	17078	20248.457870066711	0
0	17103	20281.835397151929	0
0	17113	20304.252029960402	0
0	17134	20325.468790643287	0
0	17146	20371.816979893725	0
0	17173	20407.384417296501	0
0	17178	20419.358066905626	0
0	17191	20422.266209135421	0
0	17196	20424.597966277836	0
0	17221	20457.202339652367	0
0	17235	20474.254064076314	10.790780469732
0	17248	20486.35925229317	0
0	17268	20523.27991234219	0
0	17276	20538.279504421568	0
0	17283	20544.429953769219	0
0	17298	20581.981308099157	0
0	17303	20586.692414212452	0
0	17316	20598.144325634912	0
0	17332	20606.049095840488	0
0	17344	20614.110861130436	0
0	17358	20632.728443353267	4.306046185442
0	17376	20641.478349785254	0
0	17388	20651.330042041161	0
0	17397	20658.790284390633	0.170775099017
0	17403	20671.001395795792	0
0	17416	20674.023090461902	0
0	17422	20681.13016412834	0.901327775333
0	17446	20708.899939264429	0
0	17453	20713.685356450654	0
0	17461	20719.945789591682	0
0	17484	20753.059172714828	0
0	17496	20764.709967931081	0.074755565784
0	17507	20771.59133132294	0
0	17523	20778.967580485625	0
0	17544	20794.856461722683	0
0	17568	20818.324055099951	0
0	17586	20840.278272228332	0
0	17591	20846.840548705798	0
0	17606	20867.575569306986	0
0	17651	20936.454231411505	0
0	17670	20955.098237784812	16.422737153748
0	17678	20962.293547277324	0
0	17693	20974.229545056011	0
0	17703	20978.46584827701	0
0	17708	20983.298692910327	0
0	17716	21003.219273003654	0
0	17729	21021.213275841713	0
0	17734	21024.154775401819	0
0	17741	21028.34304215618	0
0	17748	21046.473150503801	0
0	17758	21078.713084695425	0
0	17771	21116.125633676908	0
0	17783	21130.857190248899	0
0	17788	21132.856267974301	0
0	17808	21160.84110819355	0
0	17817	21168.623872207266	0.114914772288
0	17822	21174.670915965218	2.807210821434
0	17833	21181.620423737343	0
0	17840	21188.950506107481	5.010816410606
0	17863	21210.543584834906	0
0	17876	21232.795307602627	0
0	17893	21255.008184785599	0
0	17936	21317.131548477627	0
0	17943	21322.963262063347	0
0	17955	21341.382624075345	8.360776364616
0	17967	21352.416282352157	9.439996119834
0	17993	21403.504275638466	0
0	18043	21444.605163343658	0
0	18048	21468.134604204333	0
0	18061	21478.132214284649	0
0	18074	21490.918390409306	0
0	18082	21500.047159446833	0
0	18093	21511.560766177309	5.093806549151
0	18112	21525.360941319718	0
0	18133	21542.70214487347	0
0	18151	21558.993090246123	0
0	18156	21564.807944244882	0
0	18163	21587.886738108459	0
0	18171	21614.939615792059	0
0	18178	21615.854029283897	0.413836901784
0	18193	21628.297381475377	0
0	18198	21648.094006627994	0
0	18203	21653.455970308212	0
0	18231	21682.612510109427	0
0	18249	21697.516662626609	0
0	18253	21699.07533872554	1.398496847455
0	18289	21727.562144380171	0
0	18318	21770.482594226626	0
0	18328	21794.601228255397	0
0	18353	21832.869524747722	0
0	18358	21844.119011210495	0
0	18378	21876.34065518069	0
0	18398	21919.938127500734	0
0	18408	21939.470057523629	14.193913280046
0	18416	21948.106947037895	16.704626417054
0	18421	21956.21433223247	24.248682374969
0	18429	21959.810245238009	16.13000402466
0	18438	21975.219812913478	28.495623352038
0	18440	21978.618610121389	28.279324934664
0	18442	21988.151900341996	30.48729374458
0	18470	22014.280875947748	0
0	18533	22085.620876317519	0
0	18545	22093.855767012025	3.001692195821
0	18574	22131.491051967114	0
0	18586	22139.352083778565	0
0	18591	22148.125298040497	0
0	18601	22153.731038037617	0
0	18608	22161.428218410777	0
0	18616	22168.549682289848	0
0	18640	22196.228998370602	0
0	18661	22213.343041406552	0
0	18668	22234.198395499232	0
0	18672	22244.64360957944	10.311447717257
0	18692	22260.283401622446	0
0	18738	22319.527578079723	0
0	18743	22328.461316451765	0
0	18768	22354.242657857096	0
0	18773	22357.795000375879	0
0	18778	22375.252011629357	0
0	18783	22382.394222627522	0
0	18817	22424.301533486743	0
0	18824	22430.684944784958	0
0	18853	22457.421751583777	0
0	18886	22499.643955470132	0
0	18891	22502.242364488148	0
0	18897	22505.24446523618	2.713609990995
0	18911	22533.608732229315	0
0	18916	22535.379350796023	0
0	18948	22561.353789358468	0
0	18958	22570.961461518064	0
0	18966	22576.341230218988	0
0	18989	22607.177000262009	0
0	19002	22621.553961002015	3.279152634679
0	19010	22631.713370609988	10.150941576214
0	19029	22640.109713921876	7.031600686657
0	19031	22641.412694387891	6.237262491477
0	19039	22643.961605911476	0
0	19061	22660.620626780459	0
0	19070	22663.389789722706	1.129183939713
0	19123	22713.166359472546	0
0	19134	22730.466192199719	0
0	19145	22741.466446470271	4.366966411971
0	19171	22760.817080466737	0
0	19176	22762.62664131432	0
0	19201	22792.822602722732	0
0	19278	22860.961867131096	0
0	19283	22865.366485430451	0
0	19319	22896.436881867184	0
0	19336	22904.46495936772	0
0	19343	22918.788304285928	0
0	19353	22924.297740700208	0
0	19372	22935.310752252315	0
0	19378	22944.092596756646	6.453432906948
0	19384	22948.726826247622	0
0	19393	22979.616472777935	0
0	19401	22982.334337159098	0
0	19413	23001.286454430647	0
0	19420	23002.695336306236	0.413314343277
0	19425	23019.84639387879	17.318952356901
0	19427	23027.986286637604	22.154389706789
0	19438	23039.178943007131	0
0	19443	23049.528080936901	0
0	19450	23055.190874446561	2.670694015501
0	19477	23089.853864077773	0
0	19506	23129.702670973012	0
0	19511	23134.773466029355	0
0	19533	23172.918225547976	0
0	19540	23177.100059434625	3.840828226716
0	19542	23180.380074362398	3.771661544356
0	19547	23182.306226989188	1.638335100476
0	19556	23188.023349874731	0
0	19598	23233.920639829112	0
0	19653	23351.056315209612	0
0	19679	23373.585005855848	0
0	19743	23448.088337507075	0
0	19767	23499.187687392337	0
0	19806	23566.312344566594	0
0	19813	23586.344253320366	0
0	19818	23588.554387219969	0
0	19828	23611.448901704962	0
0	19832	23624.329314202064	12.82513019328
0	19842	23638.258027876374	2.072860345801
0	19848	23660.835648047316	0
0	19853	23662.29979838644	0
0	19863	23665.297739061149	1.311370039355
0	19867	23666.172302163329	1.699979491219
0	19892	23681.37189363798	0
0	19939	23728.530230644715	0
0	19951	23751.662306090394	0
0	19993	23829.525252479316	0
0	20029	23864.51879388594	0
0	20059	23889.849683709632	0
0	20067	23896.604248993943	6.555715829199
0	20077	23907.512959516834	9.816154091936
0	20096	23924.369072998688	0
0	20100	23927.189295299878	1.66623987382
0	20108	23930.864658955283	0
0	20118	23938.345932125854	0.92038223773
0	20133	23980.279278764408	0
0	20138	23983.476743349758	0
0	20148	23995.936002451828	0.084608068045
0	20172	24012.016561980726	0
0	20181	24017.818111556404	0
0	20198	24050.56648286203	0
0	20202	24056.798393129868	3.04412206022
0	20248	24130.418610621921	0
0	20261	24138.461479800781	0
0	20286	24152.87577856274	0
0	20306	24164.329373581026	0
0	20325	24180.070871868133	7.638792050349
0	20339	24183.916718378806	0
0	20403	24261.243138197146	0
0	20418	24271.750400537255	8.328034723849
0	20422	24275.071940129401	9.783493206878
0	20428	24278.072394982208	0
0	20438	24305.547078421829	0
0	20443	24310.59473573706	0
0	20447	24318.12596663057	3.417035953201
0	20483	24365.424768823453	0
0	20496	24387.367299602262	0
0	20507	24394.048704909027	0
0	20526	24415.130375809889	0
0	20538	24427.983217658764	0
0	20566	24450.49100067227	0
0	20580	24458.84999885595	7.893175167667
0	20602	24487.772592180711	0
0	20629	24502.39784154575	14.394124425482
0	20640	24508.209324209409	10.278288991105
0	20642	24510.663100959025	6.063697194856
0	20664	24525.174983356346	0
0	20713	24559.67025430335	0
0	20728	24571.526494071095	3.37259231283
0	20732	24573.902168731552	4.639409985647
0	20751	24587.952992656859	11.854733335059
0	20753	24590.577127113832	14.462113113727
0	20788	24631.720887911603	0
0	20793	24638.433486026449	0
0	20831	24677.495575883737	0
0	20838	24690.429344005343	0
0	20854	24702.698646522888	0
0	20862	24710.737299361488	0
0	20875	24723.635012242967	11.954980813378
0	20916	24783.698746359237	0
0	20956	24829.328428320792	0
0	20963	24835.128541449951	0
0	20978	24855.372349759202	0
0	20991	24868.636663043495	0
0	21008	24882.697661768478	0
0	21013	24886.9456657124	0
0	21018	24889.157640637663	0
0	21048	24925.306430153383	0
0	21053	24926.208660862739	0
0	21081	24952.312834598811	0
0	21098	24967.571171551266	0
0	21113	24986.812825801359	0
0	21121	24989.346117608803	0
0	21145	25004.869839375379	0
0	21164	25009.961945089809	0
0	21188	25046.442512076476	0
0	21196	25055.258672462856	0
0	21212	25069.04560641852	0
0	21261	25142.362175358785	0
0	21273	25158.504618331746	0
0	21277	25166.759893095243	7.634486949115
0	21305	25189.752267034509	0
0	21343	25222.514795129807	0
0	21350	25226.451547843497	2.971721072664
0	21381	25256.457064061402	0
0	21388	25266.025775165443	0
0	21403	25280.546210456807	0
0	21414	25313.623740983285	0
0	21431	25328.945758149894	0
0	21453	25358.120251491622	0
0	21458	25365.071047606145	0
0	21471	25382.540879541202	0
0	21477	25386.040449340473	2.010835558608
0	21483	25400.512891317678	0
0	21498	25408.942184361647	3.179943413723
0	21522	25422.511398440913	0
0	21533	25429.631907908175	0
0	21547	25447.237321303585	0
0	21581	25471.376527181208	0
0	21585	25475.614345213212	0.555640685964
0	21598	25499.01616000709	0
0	21603	25516.18215706223	0
0	21638	25551.300619314656	0
0	21648	25560.457304158119	0
0	21663	25581.001660499045	0
0	21667	25588.138916313185	0.099256032966
0	21688	25626.850132599736	0
0	21698	25648.194275540505	0
0	21729	25669.442523783014	0
0	21737	25687.032186300402	0
0	21762	25714.552469006229	0
0	21773	25728.448033108033	0
0	21783	25741.65619357782	0
0	21801	25756.924117068855	0
0	21856	25822.489804474527	0
0	21860	25823.74999843983	0.535542155024
0	21865	25825.529958448681	0.609174681972
0	21878	25839.790233895077	0
0	21896	25890.314036473969	0
0	21903	25898.961295884095	0
0	21908	25904.964896460122	0
0	21917	25910.208427036972	2.321524237531
0	21965	25963.360204314316	0
0	21996	25984.115279145664	0
0	22011	25998.792126269833	0
0	22018	26000.485941610938	0
0	22028	26017.496477239372	0
0	22049	26039.911558856938	0
0	22066	26054.146125062466	0
0	22070	26059.726752598435	3.448924140966
0	22083	26066.978206384874	3.073221966631
0	22133	26140.898705935805	0
0	22143	26167.376397097247	0
0	22148	26174.740274892851	0
0	22161	26183.411437951304	0
0	22198	26226.609806380127	0
0	22218	26261.776455325162	0
0	22225	26262.793095821531	0.522135357158
0	22233	26270.595091207502	0
0	22238	26298.92134147106	0
0	22261	26340.206039004224	0
0	22265	26341.542624840267	1.234638598296
0	22281	26357.52690370423	0
0	22298	26388.550309265947	0
0	22323	26422.387913947603	0
0	22333	26440.359638285395	0
0	22342	26451.416717892595	1.801534979389
0	22347	26456.466560111917	0.799838861263
0	22358	26464.47508094375	0
0	22369	26473.650316961467	0
0	22397	26495.23119680216	0
0	22446	26577.281045824526	0
0	22453	26589.659498461445	0
0	22457	26592.155754274062	1.329029207696
0	22462	26593.988869304441	1.462017615413
0	22467	26603.526157040734	6.41442673112
0	22506	26650.555945368948	0
0	22541	26724.114305712836	0
0	22552	26741.226724295375	1.657026417992
0	22557	26756.687956932376	10.505381051642
0	22594	26785.148486747788	0
0	22608	26792.22408015746	0
0	22626	26800.123674700996	0
0	22646	26822.241869270295	0
0	22658	26839.31718067167	0
0	22681	26863.689190105989	0
0	22711	26905.19025849499	0
0	22738	26947.039416145341	0
0	22743	26948.90525022787	0
0	22748	26955.074750976469	0
0	22763	26986.593022314586	0
0	22786	27014.56674309182	0
0	22796	27022.268560021845	0
0	22811	27061.168710663893	0
0	22843	27115.18161334819	0
0	22847	27124.993487539338	7.976519153867
0	22866	27146.429178982407	0
0	22871	27151.160546353709	0
0	22888	27173.362934345086	0
0	22896	27185.896784993732	0
0	22903	27193.313948250083	0
0	22908	27199.175947025107	0
0	22916	27208.740209398877	0
0	22939	27230.720933930465	0
0	22949	27249.486690651777	0
0	22978	27275.055141659709	0
0	22996	27315.61851927811	0
0	23008	27327.56523128457	0
0	23016	27332.210625734005	0
0	23038	27373.545009378943	0
0	23043	27379.024442408738	0
0	23047	27380.646536217492	0.484205576214
0	23053	27383.778328559167	0
0	23082	27414.61022755026	0
0	23108	27467.15662514822	0
0	23112	27471.544223822232	0.412588669866
0	23131	27479.497754689843	0
0	23138	27483.282447995114	3.542354664778
0	23146	27492.522101270311	0
0	23162	27504.108443662473	0
0	23185	27520.443935769508	13.565216754304
0	23187	27521.571558949529	12.559497218901
0	23193	27553.235984885997	0
0	23216	27571.058949747029	0
0	23221	27572.265687650827	0
0	23227	27580.23208802027	2.02410135264
0	23238	27586.092468879352	0
0	23243	27587.532487706022	0
0	23258	27603.773161452563	0
0	23282	27623.657339476126	5.415898476942
0	23288	27635.639679028908	0
0	23293	27640.764422766751	0
0	23306	27660.755170942862	0
0	23311	27662.745908769909	0
0	23315	27669.032572616312	4.236867366191
0	23329	27679.218455436041	0
0	23366	27731.779534031111	0
0	23375	27743.5597958927	3.567315882634
0	23385	27749.801765420883	3.22879528486
0	23390	27752.799351779824	4.360795269145
0	23395	27764.545381758922	6.297784945423
0	23418	27782.159174108777	0
0	23428	27824.030177472586	0
0	23438	27835.312227049125	0
0	23461	27872.341629351576	0
0	23476	27888.762361166662	0
0	23513	27949.772145113557	0
0	23523	27960.356529037638	0
0	23528	27972.138604776436	0
0	23548	28013.979518075736	0
0	23565	28025.992828052489	2.720752246986
0	23571	28031.523855301797	0
0	23575	28037.373108306407	2.604961884893
0	23586	28042.716788441624	4.832247189204
0	23592	28046.658416594598	8.308518887979
0	23609	28060.895099040144	0
0	23631	28084.863974429915	0
0	23643	28095.059736829102	0
0	23647	28101.882083587741	5.738661455169
0	23676	28123.536625005391	0
0	23693	28138.677703477934	0
0	23698	28142.010073700584	0
0	23707	28147.987454465787	3.467702405371
0	23713	28177.334607161485	0
0	23718	28187.059596637338	0
0	23736	28203.9211946565	0
0	23763	28260.634775147579	0
0	23778	28294.281399521375	0
0	23801	28322.345181114035	0
0	23812	28324.997415230851	0
0	23839	28332.693672719578	0
0	23848	28348.181695564423	0
0	23861	28362.680458132847	0
0	23873	28388.305393225182	0
0	23877	28390.9446224773	2.28026726105
0	23885	28400.13766039006	3.778132625035
0	23909	28423.432340815836	0
0	23921	28439.776039951808	0
0	23981	28491.027768763664	0
0	23985	28496.636721579648	2.183191850922
0	24002	28505.156529374997	6.844210725336
0	24018	28520.576562575529	0
0	24028	28522.057408325581	1.397210459477
0	24048	28539.144153446635	0
0	24068	28550.222907429264	0
0	24075	28554.449392342971	2.429378012951
0	24077	28558.202240406294	5.143659318113
0	24087	28564.62713927874	5.850381478321
0	24093	28575.45016000524	0
0	24118	28616.322764774111	0
0	24136	28649.07838506352	0
0	24161	28674.874264268955	0
0	24176	28688.151733355638	0
0	24189	28700.171284230767	0
0	24203	28725.292055000799	0
0	24210	28727.727913970016	1.826793520711
0	24223	28748.13893835977	0
0	24248	28780.597323832053	0
0	24261	28795.995109530516	0
0	24268	28803.82768172179	0
0	24283	28818.831543012329	0
0	24296	28827.606558863218	0
0	24305	28838.285942084121	1.719579828185
0	24318	28844.650275475607	0
0	24338	28868.834663314345	0
0	24367	28879.527244903345	0
0	24382	28890.334785176954	2.765139830447
0	24398	28896.95961033205	0
0	24409	28926.290228089864	0
0	24413	28928.703171444667	1.470813973245
0	24459	28965.611084044959	0
0	24466	28972.111390583462	4.466850987977
0	24482	28985.58673146611	0
0	24502	29008.553678401691	0
0	24517	29019.27928894914	0
0	24531	29033.70826180304	0.498384254733
0	24554	29052.403429693284	6.578018852908
0	24563	29057.127430031737	6.892116312154
0	24565	29060.928183515918	7.611578107379
0	24578	29088.007901410992	0
0	24583	29090.239832189372	0
0	24598	29112.469350927825	0
0	24611	29135.192082073127	0
0	24616	29135.917993926009	0
0	24639	29156.055370604761	0
0	24653	29165.258265771348	9.029008672044
0	24664	29176.263157385011	0
0	24678	29194.934240536039	0
0	24682	29200.854699178572	4.987143440099
0	24699	29212.894690108817	0
0	24713	29227.75935387584	0
0	24727	29239.174329047285	8.362287933292
0	24743	29262.618410530337	0
0	24748	29304.38206657007	0
0	24753	29317.655077174882	0
0	24773	29347.499284535405	0
0	24778	29384.30162338877	0
0	24786	29386.289009090497	0
0	24793	29420.145744768691	0
0	24797	29422.115983338307	0.785811033113
0	24803	29432.131628972534	0
0	24811	29433.944155070393	0
0	24817	29437.775963865715	2.338622028254
0	24833	29457.117225987776	0
0	24844	29465.41260713872	0
0	24853	29473.181403440696	0
0	24862	29488.605194180953	1.66500245885
0	24894	29536.252107180877	0
0	24904	29544.282382114114	7.754770600643
0	24938	29574.340157085962	0
0	24952	29586.256752881109	10.942482916011
0	24968	29605.35609395942	0
0	24988	29656.965866647714	0
0	24993	29663.578254621442	0
0	25000	29688.142002920818	7.172489943711
0	25016	29716.426648915839	0
0	25020	29718.181627630425	1.733721666501
0	25052	29740.125540375888	20.57341225838
0	25070	29753.738713285981	22.947860043299
0	25072	29755.30304989287	22.595769252509
0	25103	29812.108911543892	0
0	25108	29819.922695151163	0
0	25113	29831.652653777987	0
0	25143	29874.670915589066	0
0	25159	29889.040899808596	0
0	25181	29919.991628155493	0
0	25188	29924.701575345583	0
0	25206	29945.81808172182	0
0	25219	29954.752814367118	0
0	25237	29974.213072361174	2.377030918037
0	25263	29998.348588875485	0
0	25272	30008.120670270785	5.584477946427
0	25283	30024.10843296643	0
0	25313	30048.974856863773	0
0	25317	30052.763536159906	3.333523618569
0	25333	30064.839678262623	3.505611301479
0	25342	30072.47759893278	10.004745622428
0	25383	30135.968029020265	0
0	25403	30174.073731406051	0
0	25418	30193.249739605027	0
0	25433	30215.20157405938	0
0	25463	30261.601329088078	0
0	25491	30305.498357833885	0
0	25511	30319.062941517209	0
0	25520	30325.034432905271	4.836211029653
0	25522	30337.011463574378	15.067492228753
0	25533	30356.473767008818	0
0	25537	30360.841181413184	2.537727478768
0	25557	30374.557872423405	6.679896584769
0	25563	30389.862893233913	0
0	25568	30398.741125336718	0
0	25573	30412.073263299984	0
0	25578	30418.234912410269	0
0	25598	30457.996887561302	0
0	25611	30482.601765444177	0
0	25636	30502.152152688392	0
0	25652	30514.469098553236	0
0	25678	30527.794596869632	0
0	25698	30548.71832383506	0
0	25714	30568.539771925853	0
0	25736	30620.376832421045	0
0	25743	30624.407707767132	0
0	25752	30631.589765767291	0.417339177405
0	25763	30697.033537303008	0
0	25781	30726.483651366279	0
0	25788	30729.970784325208	0
0	25809	30751.719492721734	0
0	25829	30773.863909142846	0
0	25850	30790.722243131415	15.754689805112
0	25858	30795.692626148973	0.543357522208
0	25875	30809.638764264867	10.083816407659
0	25882	30826.25125911053	19.995228580734
0	25891	30838.643597782995	0
0	25903	30855.302421216064	10.030483603711
0	25924	30877.013657046739	0
0	25931	30879.609633589178	1.102912422976
0	25968	30923.710285878119	0
0	25973	30936.371543544125	0
0	26000	30977.471396153618	0
0	26023	30990.643194735696	0
0	26028	30996.452592811725	0
0	26036	31002.21568376078	0
0	26051	31023.718795789601	0
0	26058	31041.363262890398	0
0	26084	31065.02906620751	0
0	26111	31084.953581838315	0
0	26138	31116.62420915998	0
0	26153	31126.583876479774	6.659317925875
0	26158	31128.943105467728	6.722532584827
0	26167	31132.225655359343	9.293671802978
0	26188	31173.327880097534	0
0	26201	31186.601903905116	0
0	26243	31232.155912416648	0
0	26248	31240.655652793726	0
0	26256	31259.703045559181	0
0	26265	31262.998484622437	1.322340556704
0	26275	31271.761352095305	8.380302564755
0	26277	31271.87189818578	8.073957958197
0	26298	31286.30473642374	0
0	26311	31320.807693142511	0
0	26358	31396.039411383374	0
0	26376	31402.151802284817	0
0	26381	31406.15275615765	0
0	26391	31418.857180896971	0
0	26403	31449.43347340448	0
0	26413	31458.60693142671	0
0	26422	31466.608532113148	0.119853845257
0	26448	31504.212733448001	0
0	26455	31511.903123102864	4.141444373853
0	26488	31540.330042790586	0
0	26501	31547.714141089615	0
0	26523	31591.177870100595	0
0	26528	31595.616286241619	0
0	26568	31632.298632772566	0
0	26584	31653.666972491983	0
0	26593	31656.574000517819	1.395669994362
0	26663	31785.522565556634	0
0	26681	31794.287696023736	5.454232084742
0	26691	31800.979428073539	0
0	26695	31809.736358234526	4.499907279325
0	26700	31810.774010765585	0.959290415841
0	26734	31850.581591814362	0
0	26743	31851.614400524701	0
0	26786	31899.14642043906	0
0	26796	31907.236810972449	0
0	26800	31913.857458958073	3.035287828384
0	26821	31925.892603091827	0
0	26829	31929.044537738675	0
0	26836	31936.572104794276	0
0	26853	31956.633732867716	0
0	26878	31988.172346902165	0
0	26906	32018.393281512491	0
0	26915	32024.466652154805	6.000951913766
0	26953	32073.988225626193	0
0	26957	32084.832801471599	6.386025940188
0	26963	32094.428312234281	0
0	26968	32104.889867181834	0
0	26988	32124.26446171557	0
0	27013	32160.552941913054	0
0	27018	32167.518205596429	0
0	27025	32171.309175605676	2.616148288678
0	27032	32180.013808623264	8.988227702303
0	27047	32196.485210852566	7.228908425535
0	27061	32204.388985872414	4.658726232368
0	27063	32207.308251892128	6.644691641432
0	27065	32209.261855156698	8.276946155049
0	27067	32215.994502536848	12.716201430422
0	27075	32226.125890059023	7.137183813317
0	27126	32290.579129879286	0
0	27135	32298.791084646984	3.234046277737
0	27137	32304.577190533012	6.5402967968
0	27149	32318.057225117144	0
0	27166	32328.149040416478	0
0	27182	32343.086747550999	0
0	27203	32394.202248365765	0
0	27218	32421.221859214335	0
0	27226	32425.576239930096	0
0	27233	32437.023925441344	0
0	27241	32444.045737178724	0
0	27273	32513.49466362934	0
0	27283	32526.11037054971	0
0	27302	32538.414643889036	0
0	27355	32591.105656078218	0
0	27366	32603.133047959361	0
0	27370	32605.845102872766	0.274718711044
0	27381	32620.735140873042	10.824349358358
0	27389	32629.973068795101	0
0	27413	32643.971003752591	0
0	27417	32648.132988130889	3.676317212051
0	27433	32659.052211683827	0
0	27438	32662.741614631984	0
0	27446	32670.653373980034	0
0	27457	32685.509174368064	0
0	27469	32694.497129480901	0
0	27483	32703.464260483619	0
0	27495	32718.936113793424	7.068954606806
0	27497	32720.766029264531	5.23438656028
0	27503	32722.125088314318	0
0	27519	32739.789912694596	0
0	27554	32784.129885894919	0
0	27572	32795.895545205247	8.988620073886
0	27578	32806.119906702665	0
0	27582	32813.799512662206	2.74095457838
0	27601	32832.934961327034	0
0	27617	32839.552624211691	0
0	27664	32895.141277292071	0
0	27675	32914.821189800265	14.526906294276
0	27687	32921.632993562	14.796548782051
0	27713	32955.818212338335	0
0	27723	32964.14071496659	0
0	27736	32993.050246214901	0
0	27752	33006.515957670086	6.566519068751
0	27805	33046.074437917431	0
0	27818	33058.459469246572	0
0	27838	33109.207935943964	0
0	27843	33115.083172367612	0
0	27862	33134.497521584385	0
0	27871	33149.921470205248	0
0	27876	33159.187008541737	0
0	27888	33179.59646525119	0
0	27908	33221.421861754328	0
0	27931	33262.622558812655	0
0	27935	33264.740480811002	1.433275403234
0	27942	33265.079574019565	0.206544099575
0	27966	33291.23898949332	0
0	27978	33309.442589468426	0
0	27988	33335.042001385061	0
0	27998	33343.322540435228	0
0	28008	33370.70097742044	0
0	28022	33389.265972930127	18.34724453206
0	28038	33401.637241841287	0
0	28050	33408.710120031775	5.110629834762
0	28055	33415.004460724425	8.261068455441
0	28057	33415.290295390401	1.520018611207
0	28069	33428.415874723478	0
0	28098	33467.802858404427	0
0	28121	33490.542200245435	0
0	28125	33492.744197256058	1.231201294492
0	28144	33501.625196837978	0
0	28154	33509.98851279693	0
0	28181	33528.708453351132	0
0	28188	33538.250684250543	0
0	28202	33547.292192713319	0
0	28236	33575.115740930892	0
0	28261	33612.721748616231	0
0	28266	33619.244592970282	0
0	28309	33675.553345579459	0
0	28322	33690.538700812782	0
0	28330	33694.152039236523	1.964109803945
0	28351	33712.64585562979	0
0	28356	33714.029843336118	0
0	28383	33762.645845142597	0
0	28393	33785.856831445151	0
0	28408	33833.340979353344	0
0	28428	33849.190904504828	0
0	28438	33858.002948768727	0
0	28466	33913.961418684263	0
0	28512	33978.065636467487	0
0	28542	33996.810325755488	0
0	28550	33999.313301234061	0
0	28570	34013.790209884948	0
0	28582	34016.306027590824	0.670274201344
0	28606	34050.552537653551	0
0	28628	34075.486437915009	0
0	28656	34130.55822253739	0
0	28678	34153.788397978765	0
0	28682	34157.930722860839	0.47923276422
0	28713	34234.764033950128	0
0	28723	34256.398937300818	0
0	28750	34272.542603368482	0
0	28758	34276.536525589636	2.829629701281
0	28779	34308.6592276234	0
0	28786	34309.440881922231	0
0	28793	34316.767335041397	0
0	28798	34330.405086145436	0
0	28810	34346.462446031566	3.315792610558
0	28830	34355.646507191476	0
0	28863	34396.772885179488	0
0	28873	34412.130504038135	0
0	28883	34430.929045411389	0
0	28888	34451.380078181946	0
0	28901	34460.459865559448	0
0	28918	34471.967741105742	9.916981775784
0	28944	34502.023605900623	0
0	28955	34521.362308793025	6.456287906736
0	28960	34525.523239651085	9.959650067987
0	28962	34525.80596831513	1.294899940321
0	28968	34532.732306377395	0
0	28999	34578.360356717743	0
0	29075	34659.633907699245	0
0	29112	34694.293404366962	0
0	29133	34717.562927057325	0
0	29138	34744.757881095898	0
0	29154	34756.283199206409	11.066219956634
0	29156	34756.799940480726	6.251294766956
0	29158	34758.338420295886	5.951752974754
0	29173	34788.154981329683	0
0	29183	34815.508357922246	0
0	29228	34877.83712881996	0
0	29233	34890.923995143676	0
0	29266	34962.942094774078	0
0	29271	34968.136180322562	0
0	29283	34989.841706603815	0
0	29296	35009.117646317039	0
0	29307	35020.635555595462	0
0	29312	35027.94611169426	0
0	29321	35031.362307998427	0
0	29361	35071.228331428527	0
0	29371	35078.578823657965	0
0	29383	35086.752151418016	0
0	29387	35091.424315008951	2.462533631605
0	29403	35109.749878883403	16.730908783846
0	29405	35114.63733007294	20.312899599873
0	29410	35118.835686686603	20.528952371404
0	29421	35121.865603182661	0
0	29437	35129.58209170458	0
0	29461	35169.782709009444	0
0	29481	35180.833194734554	4.125666811151
0	29483	35182.879345963855	4.481885229908
0	29485	35186.082273296592	6.708439517444
0	29487	35191.523275587827	11.985452748071
0	29493	35205.811124790301	0
0	29516	35229.247056698906	0
0	29523	35239.385005052016	0
0	29533	35251.217993361802	0
0	29538	35256.121796234706	0
0	29559	35275.024479048156	0
0	29581	35296.010991075378	0
0	29589	35305.37808382782	0
0	29603	35313.416822357473	0
0	29608	35320.921463861717	0
0	29612	35325.981300977713	4.57005878857
0	29621	35351.457565782561	0
0	29633	35360.414080719749	6.880088276421
0	29644	35373.11849944642	0
0	29657	35382.333217019155	3.095063255516
0	29676	35404.660628695919	0
0	29703	35444.411094548428	0
0	29708	35465.093006874142	0
0	29723	35485.503913258595	0
0	29730	35496.468615262113	6.705956715537
0	29763	35565.07428900359	0
0	29773	35569.96929791394	0
0	29786	35615.242216472414	0
0	29809	35634.46583574266	0
0	29818	35641.121327954144	0
0	29828	35646.109448076662	0
0	29841	35656.730538316535	0
0	29864	35680.329874520413	0
0	29884	35726.895773713199	0
0	29898	35743.44686109666	0
0	29906	35756.506450039764	0
0	29912	35761.914319676174	4.517052144393
0	29946	35793.444803646778	0
0	29962	35821.133054649759	0
0	29979	35826.050600258891	0
0	29998	35842.423643443228	0
0	30008	35862.220985561781	0
0	30012	35866.077862045697	0.385825896409
0	30028	35878.617083307821	5.024537900622
0	30037	35881.322512455423	0
0	30056	35897.518670365749	0
0	30108	35940.085418508009	0
0	30118	35951.797282417256	0
0	30141	35985.486617107348	0
0	30148	35999.821681128905	0
0	30152	36013.288887514725	8.718469197158
0	30157	36022.180508548892	2.010017826037
0	30198	36046.248120285699	0
0	30205	36051.141905489792	1.521581397601
0	30213	36061.682720624549	0
0	30223	36086.985534201808	0
0	30233	36088.580048649182	1.07196266032
0	30243	36095.380339846869	0
0	30261	36128.107317817618	0
0	30273	36140.527576369314	0
0	30283	36148.143843062075	6.157040908703
0	30291	36172.7120487014	0
0	30316	36202.800189237501	0
0	30336	36223.939528366877	0
0	30348	36248.504028938934	0
0	30373	36263.792789914694	12.751077528062
0	30380	36268.266469598283	10.492037883929
0	30406	36303.141128545303	0
0	30418	36325.812636593288	0
0	30448	36354.706071345982	0
0	30453	36371.273146003267	0
0	30521	36426.565679591408	0
0	30536	36441.165849930392	0
0	30541	36445.978908567603	0
0	30549	36448.158057233044	0
0	30558	36466.091717379685	0
0	30573	36479.40500536723	0
0	30578	36483.640693326572	0
0	30583	36490.460113480892	0
0	30608	36537.639238546504	0
0	30612	36539.110883196944	0.24204375264
0	30630	36553.676339057809	0.560946528123
0	30644	36563.01646936876	0
0	30651	36566.34998360749	0.850893719243
0	30681	36608.222218036131	0
0	30691	36630.171600086939	0
0	30726	36691.393789267572	0
0	30736	36701.404638110821	9.718344433937
0	30758	36725.6800675991	0
0	30766	36736.508977145799	0
0	30773	36744.157645638643	0
0	30801	36773.157987267852	0
0	30836	36831.201055356339	0
0	30840	36833.360550635606	0.909853115396
0	30848	36854.252397917569	0
0	30861	36871.857276783192	0
0	30878	36913.130724820135	0
0	30893	36925.340218245114	0
0	30898	36940.02348736421	0
0	30906	36953.964668581261	0
0	30933	36983.846430924677	0
0	30943	36989.452250255794	0
0	30956	37007.382302280244	0
0	30967	37025.156616757481	10.437359867956
0	30973	37033.610824776779	0
0	30981	37049.966728916466	0
0	30990	37054.555673830089	3.458520756506
0	30992	37056.671404117056	3.684815481385
0	31013	37081.31155499163	0
0	31018	37101.426698517742	0
0	31023	37112.378053734478	0
0	31051	37141.704063782439	0
0	31066	37153.778276177697	0
0	31076	37163.384886151295	0
0	31096	37171.43510463781	0
0	31105	37181.859298892566	1.471139631466
0	31110	37183.666918814082	0.444349600337
0	31128	37196.082445054779	0
0	31153	37245.450538201479	0
0	31196	37313.30255462101	0
0	31208	37318.88772482432	0
0	31213	37320.722106075838	0
0	31249	37381.562495546596	0
0	31254	37386.398201009697	0
0	31278	37400.085875295257	0
0	31285	37408.024516618643	3.7144417523
0	31290	37420.297682510662	15.095859791932
0	31351	37526.482964417738	0
0	31372	37543.397427883078	0
0	31413	37584.373390797202	0
0	31421	37596.878947979565	0
0	31437	37611.641642443204	0
0	31448	37630.153812704543	0
0	31466	37647.01384965643	0
0	31473	37683.316186781084	0
0	31478	37688.647244010693	0
0	31501	37709.803107025107	0
0	31507	37713.611837802158	1.3601625185
0	31517	37724.071148420442	0.102721190614
0	31532	37738.021577181333	5.959982706917
0	31588	37800.758128206846	0
0	31592	37801.774824297679	1.005739069978
0	31611	37831.279480365822	0
0	31618	37848.969668936718	0
0	31627	37857.559976552066	5.341941023048
0	31693	37940.471739178094	0
0	31698	37950.667803991243	0
0	31708	37956.101301429011	0
0	31719	37959.241139910724	0
0	31741	37969.632333452619	0
0	31750	37976.270074827319	6.114744387766
0	31755	37978.791645357286	3.968893014784
0	31770	37986.250406768962	8.70283324979
0	31772	37987.066335312978	5.027293155511
0	31788	38002.832823527727	0
0	31799	38014.087414872224	0
0	31816	38039.750286701985	0
0	31843	38081.21746124189	0
0	31856	38100.52996167921	0
0	31871	38134.590386768076	0
0	31893	38160.959562886306	0
0	31909	38183.173236119802	0
0	31928	38210.264281108435	0
0	31943	38224.638539729729	0
0	31984	38260.038859674881	0
0	31991	38270.738314731278	0
0	32033	38315.908881959014	0
0	32058	38343.517206044109	0
0	32066	38354.450314029026	0
0	32073	38359.965121124421	0
0	32101	38409.263020139329	0
0	32114	38417.745807227311	0
0	32123	38427.611356865672	0
0	32128	38445.212612028759	0
0	32153	38491.694860700792	0
0	32160	38506.943331720485	7.28392398611
0	32162	38507.471425716011	5.303514850803
0	32168	38509.009605105991	0
0	32173	38513.108571259845	0
0	32177	38517.260661824193	3.05354939455
0	32196	38532.495709529329	0
0	32210	38548.188407500164	14.179527976476
0	32224	38551.776960751746	0
0	32236	38578.446806705583	0
0	32240	38580.472566078873	0.111327504729
0	32266	38629.153903827601	0
0	32287	38647.400907709189	2.32548575407
0	32301	38666.205850589926	18.590476235683
0	32306	38668.737680778001	11.318888001686
0	32313	38672.031079297346	9.562955294734
0	32323	38679.892909137723	0
0	32333	38688.054382909731	0
0	32351	38708.885019288747	0
0	32394	38766.438315858757	0
0	32426	38802.363500597867	0
0	32446	38818.898624807979	0
0	32467	38841.444436510302	0
0	32494	38880.916174686629	0
0	32498	38883.72987511199	1.480802687106
0	32510	38892.384527271736	0
0	32537	38914.346644686706	0
0	32569	38952.433628887575	0
0	32573	38958.758883772008	4.673174169669
0	32583	38965.011931251934	2.68099972339
0	32602	38977.453809199888	10.209243948197
0	32621	38994.676957433954	0
0	32648	39039.552461250426	0
0	32658	39060.679331332266	0
0	32666	39065.257943075966	0
0	32684	39076.125487521433	0
0	32707	39095.018378132126	0
0	32718	39099.022353877291	1.658111705273
0	32725	39102.977248491948	2.376363268163
0	32766	39148.015484172306	0
0	32778	39168.424617295507	0
0	32783	39171.369053342822	0
0	32792	39174.257800047746	0.427764700941
0	32798	39180.508043468281	0
0	32816	39188.814694107657	0
0	32823	39189.322209534431	0
0	32838	39215.936699598673	0
0	32847	39229.956976052151	13.903525511324
0	32868	39258.095266238158	0
0	32878	39268.770988828407	0
0	32893	39285.592400634345	0
0	32903	39290.172134904754	2.686883586248
0	32910	39295.373714422314	7.707003168982
0	32934	39325.354607366312	0
0	32950	39336.107249880399	7.165451761415
0	32957	39341.165622676566	10.809575298719
0	32965	39344.862773916378	0.143976851278
0	32973	39359.126896972798	0
0	32978	39368.003638317853	0
0	32983	39369.319414695879	0
0	32990	39375.335835228393	0.747075353811
0	33013	39404.241528205702	0
0	33018	39405.952286646369	0
0	33023	39413.268143683297	0
0	33028	39418.646389057362	0
0	33071	39486.653986885969	0
0	33083	39497.827023734909	0
0	33116	39519.442587212777	0
0	33125	39528.199462923669	6.689159991089
0	33135	39532.62767650774	1.97816530775
0	33137	39544.335283723834	12.976859225468
0	33143	39554.180419254043	0
0	33157	39571.310697969673	6.600060501611
0	33177	39592.904119884292	13.905450263149
0	33188	39631.712688067024	0
0	33195	39633.58488327942	1.401341387519
0	33221	39662.094656041865	0
0	33233	39684.208126297994	0
0	33238	39694.614960881453	0
0	33242	39700.758715958248	1.116079143044
0	33278	39742.286385527229	0
0	33288	39753.797287917515	0
0	33298	39766.321642684376	3.243371673025
0	33304	39768.037458939779	0
0	33318	39800.525857493209	0
0	33328	39813.460752955041	0
0	33336	39820.744681243818	0
0	33361	39861.722639640064	33.948732505943
0	33363	39866.282897885664	16.966837217384
0	33370	39872.530575643658	18.913721612316
0	33372	39873.00830901741	12.302260169347
0	33378	39878.355000796756	0
0	33388	39892.61145069523	0
0	33398	39905.358564588778	0
0	33408	39917.729025079845	0
0	33413	39920.879459865884	0
0	33417	39925.489614004198	0.516466435481
0	33436	39946.204986524691	0
0	33478	39989.568322532496	0
0	33514	40020.454505067651	0
0	33521	40024.626339066984	0
0	33553	40048.521656678944	14.850638057555
0	33558	40056.979820305478	21.381372081171
0	33565	40062.507604518032	16.561200842819
0	33579	40073.430626176733	0
0	33601	40086.626896353404	0
0	33628	40149.253252486979	0
0	33673	40228.64322304968	0
0	33683	40235.632948554458	0
0	33703	40260.743266734426	0
0	33715	40273.145440045765	2.375411132641
0	33717	40274.713194000156	1.803935999429
0	33730	40281.394980258261	0.168189962916
0	33735	40286.626199937328	3.349722750515
0	33764	40298.927328201922	11.711083463922
0	33768	40299.146066190928	0.298997922312
0	33784	40309.620503253702	0
0	33811	40344.974576356022	0
0	33823	40353.940638866839	0
0	33839	40361.769952583752	0
0	33888	40417.443577786505	0
0	33892	40425.013964823934	1.415566361338
0	33901	40435.381049150143	0
0	33906	40438.35755485579	0
0	33915	40447.679258204118	5.093785848855
0	33931	40465.663776348178	0
0	33954	40484.642705926382	0
0	33968	40520.944450396633	0
0	33980	40540.026369777762	10.692594339414
0	33982	40543.189289034313	12.046839576661
0	33994	40555.31009579896	0
0	34003	40563.676021590302	0
0	34013	40575.146773041519	0
0	34036	40585.408011253655	5.833439671796
0	34038	40586.271424724302	3.211130726055
0	34052	40602.333491737914	3.080360620173
0	34058	40605.443465705212	0
0	34066	40616.378349165815	0
0	34083	40640.310102673321	0
0	34101	40668.445340106275	0
0	34118	40708.620933821277	0
0	34141	40752.86869027873	0
0	34148	40755.130804130373	0
0	34157	40763.951739362939	8.615254042504
0	34168	40777.232165266275	0
0	34183	40804.025199846633	0
0	34211	40846.883465524929	0
0	34218	40855.821991952958	0
0	34238	40871.228921668102	13.171912845307
0	34261	40902.210545149142	0
0	34269	40903.956489962449	0
0	34281	40910.051237393168	5.058968546927
0	34295	40936.84899066787	21.613673052882
0	34297	40937.30412556191	9.447316367714
0	34339	41019.632257574631	0
0	34368	41042.340994385503	0
0	34393	41085.706947588842	0
0	34397	41089.573435602886	3.029568839905
0	34402	41095.285881888115	0.77941629043
0	34414	41105.560334851101	0
0	34425	41111.775471021839	0
0	34440	41126.847296679613	0
0	34447	41131.73505216454	0
0	34462	41140.815390169782	0
0	34475	41154.395045458675	0
0	34501	41176.530727215133	0
0	34531	41193.316984096327	0
0	34548	41221.251838394958	20.70593856173
0	34550	41222.184641267578	20.301045773327
0	34560	41230.598582915027	3.530096410634
0	34581	41252.584692041957	16.828098895012
0	34593	41256.239077512652	17.024803160673
0	34620	41282.784876418384	26.115538906732
0	34622	41283.025677522485	16.449715490906
0	34659	41316.172614314003	0
0	34668	41327.841993294776	0
0	34673	41335.308980671023	0
0	34686	41375.070442751106	0
0	34702	41396.811846702194	20.430368314859
0	34708	41400.169028925026	0
0	34718	41411.797829367782	0
0	34723	41416.650544744264	0
0	34736	41425.051834076717	0
0	34740	41427.877483884651	0.634856032141
0	34748	41436.381829206395	0
0	34768	41461.791264190533	0
0	34772	41464.612140831349	0.734645621913
0	34783	41474.433707758173	0
0	34793	41495.905353994494	0
0	34823	41546.361939730195	0
0	34838	41564.30780661717	0
0	34903	41654.930875315682	0
0	34911	41662.83903102583	0
0	34918	41670.358658510811	0
0	34926	41672.834662685787	0
0	34936	41682.865062559074	0
0	34943	41691.143727607383	0
0	34973	41765.308488870194	0
0	35003	41808.245292872367	0
0	35033	41824.88077487165	0
0	35046	41844.083466469161	0
0	35073	41890.649828185838	0
0	35085	41899.787169245749	2.680792887721
0	35106	41920.423193796073	0
0	35117	41928.351025570733	0
0	35148	41963.789139749291	0
0	35161	41980.628722977891	0
0	35173	41993.56796094647	0
0	35193	42018.211029277074	0
0	35222	42046.777002453717	0
0	35227	42048.173370343531	0
0	35278	42116.581437320596	0
0	35282	42118.267191253458	0.935173478281
0	35298	42148.048701887669	0
0	35312	42161.052735443648	3.65493884521
0	35321	42164.33377781585	0
0	35339	42194.634296687115	0
0	35350	42202.494529675157	5.142107759623
0	35352	42203.885518018293	1.718164468211
0	35357	42204.760883266852	0.636084905661
0	35363	42214.217630335315	0
0	35383	42231.570798697759	0
0	35402	42259.100797103462	0
0	35424	42267.146336230847	0
0	35433	42276.568199955858	0
0	35438	42285.345799886945	0
0	35443	42288.472462630217	0
0	35501	42334.455194401508	0
0	35517	42356.406464769834	0
0	35528	42381.34410792003	0
0	35546	42401.119794422707	0
0	35557	42408.90044784765	4.725556190978
0	35589	42437.183161346064	21.534912486753
0	35591	42440.885919436208	20.853806399735
0	35601	42443.878168398927	10.513833125379
0	35624	42466.049810602094	0
0	35638	42475.035583390126	0
0	35652	42498.835504229588	0
0	35663	42507.250522996667	8.371362926152
0	35668	42507.761779780282	0.07100347486
0	35676	42514.357588300203	5.942936058261
0	35693	42538.187396546905	0
0	35711	42552.651718982368	0
0	35733	42583.156744059883	0
0	35761	42612.1851710079	0
0	35765	42615.528501371038	1.794215977491
0	35829	42685.86563710451	0
0	35844	42720.343279469721	0
0	35856	42733.655479392157	0
0	35886	42774.482561679407	0
0	35898	42786.209858903648	0
0	35903	42787.226225603876	0
0	35916	42809.074790027966	0
0	35921	42814.530299431418	0
0	35943	42839.184606327703	0
0	35948	42856.027115846577	0
0	35961	42864.829329206597	0
0	35973	42888.569071884594	0
0	35988	42905.940524782179	0
0	35995	42932.650158292433	13.27012296976
0	35997	42933.069716682506	10.579321232239
0	36003	42934.329949673081	0
0	36017	42944.576973712207	2.16352475728
0	36031	42954.005688027555	0
0	36058	42989.820809128377	0
0	36071	42996.197853669598	3.188959101456
0	36076	42999.898219360587	0.670568798728
0	36109	43019.127722174218	0
0	36119	43035.007188588294	0
0	36147	43059.58440685105	3.226732857101
0	36157	43065.378458463492	0.178043798106
0	36167	43073.12686246752	0.802596293382
0	36175	43082.370482504131	8.397848630189
0	36177	43087.127288858518	4.786567235276
0	36204	43109.817861761283	0
0	36217	43117.595449197117	7.43185794614
0	36228	43125.297369389649	2.467451169762
0	36249	43140.588190703506	0
0	36256	43148.608451400108	0
0	36264	43151.842991554231	0
0	36286	43170.576269241337	0
0	36298	43176.351005997696	0
0	36303	43178.077972160844	0
0	36307	43184.474083187377	2.785109326392
0	36312	43190.661465559142	2.451376121907
0	36318	43192.793525869079	0
0	36358	43233.260575487898	0
0	36363	43238.401554829381	0
0	36376	43254.189311755071	0
0	36388	43267.625168702504	0
0	36395	43274.663068103483	0.336734587969
0	36403	43283.807298343646	0
0	36410	43288.147984091939	2.991589186507
0	36412	43289.165219852284	3.832227320504
0	36443	43343.279456309145	0
0	36478	43389.491123852818	0
0	36487	43399.543404100025	5.171071902917
0	36514	43436.820482902468	0
0	36538	43463.561729811767	0
0	36554	43473.039712364027	0
0	36578	43507.470925383684	20.512091137074
0	36584	43513.414640527598	0
0	36607	43520.369647993497	2.774080057299
0	36609	43523.731505714358	4.524622848175
0	36621	43535.38548350143	0
0	36639	43550.55073394699	0
0	36653	43561.821376405889	0
0	36701	43599.0998025162	0
0	36716	43615.464851839933	13.920323399482
0	36718	43618.602754696173	13.292271164726
0	36720	43621.548363718244	7.750473426273
0	36730	43635.65734980743	8.075373884587
0	36743	43644.000084015952	13.974788913312
0	36747	43649.085911994602	9.840327492379
0	36771	43673.527868880571	0
0	36776	43684.415145639057	0
0	36869	43785.309847409374	0
0	36881	43792.970326358671	0
0	36894	43813.145035721578	0
0	36909	43816.90688071872	0
0	36923	43833.753797064948	0
0	36927	43836.19048804453	2.165984903487
0	36932	43837.833666078118	1.558714837138
0	36941	43856.731466507135	0
0	36962	43893.780112808851	0
0	36976	43905.008959255189	0
0	36998	43931.839467935403	0
0	37003	43936.02154196259	0
0	37016	43948.433900726127	0
0	37023	43955.846719059473	0
0	37028	43963.453847129017	0
0	37038	43976.921750848712	0
0	37060	43999.694339173003	19.071554692061
0	37062	44001.306548012671	17.004604058982
0	37082	44016.747597372582	13.032214975146
0	37098	44029.991638269735	11.866297710334
0	37100	44030.322568076999	11.740378702921
0	37102	44030.572521252641	1.260052528192
0	37108	44040.039870607327	0
0	37118	44060.179258149784	0
0	37123	44071.535224376843	0
0	37145	44094.132636840195	0
0	37149	44102.520699067536	5.854363468474
0	37176	44122.928860423801	15.853469514064
0	37178	44123.160682555744	8.294677585202
0	37188	44133.942011617667	17.447866561018
0	37198	44146.051254538351	0
0	37202	44152.311404405015	2.097133470678
0	37248	44236.577509367	0
0	37297	44289.599521539221	0
0	37349	44335.908671987644	0
0	37360	44349.713090320725	0
0	37383	44371.027643838677	0
0	37391	44387.665825468913	0
0	37398	44392.04187586516	3.381309164
0	37406	44396.474773567441	0
0	37416	44400.889981785491	0
0	37441	44431.834235582168	0
0	37456	44441.829164461103	0
0	37467	44452.994813266423	2.475869223308
0	37473	44459.5837828765	0
0	37491	44479.649876249902	0
0	37503	44513.797646127749	0
0	37571	44574.609894901431	0
0	37577	44575.936936976502	0.278801999092
0	37608	44656.097880183583	0
0	37674	44739.796616695573	0
0	37705	44771.091959370763	0
0	37729	44797.297716555033	0
0	37736	44801.926421439744	0
0	37749	44814.884131473753	0
0	37773	44837.271799354579	0
0	37780	44840.833148626327	1.781884101877
0	37788	44846.364553311619	5.509300003063
0	37790	44847.211869712752	1.280019302943
0	37799	44851.514694186225	0
0	37836	44872.014016568043	0
0	37851	44884.574256173118	0
0	37863	44908.043582884402	0
0	37867	44909.711027374926	0.969122375191
0	37872	44911.845640599911	0.63191013241
0	37878	44917.46591330053	0
0	37885	44923.280555182067	1.987964254216
0	37887	44927.55118963543	4.663902143737
0	37901	44935.700172889831	0
0	37926	44977.072003660211	0
0	37943	45003.269053108208	0
0	37963	45013.54263182317	0
0	37972	45025.739835421832	7.222121743856
0	38023	45072.893129743489	0
0	38033	45080.871078581263	0
0	38043	45096.71990166012	0
0	38058	45108.731525099574	0
0	38068	45123.86797364599	13.652497285414
0	38079	45128.750148087185	15.849390278415
0	38095	45136.527200775544	12.979272442677
0	38114	45148.579543092179	0
0	38119	45155.130133424903	0
0	38138	45185.768119460866	0
0	38168	45204.498897802792	0
[...]
3	47630	56259.688490103917	14.602588686177
3	47638	56268.460960704582	2.559420949833
3	47640	56270.088496686209	4.35879890183
3	47645	56281.278621550437	0.066624167462
3	47650	56287.936646939991	3.107943665516
3	47655	56303.680266309176	1.882395327556
3	47660	56308.423448396699	0.680516410594
3	47671	56312.013504440393	3.310237229511
3	47673	56312.35816090534	2.719135547991
3	47675	56313.389177106627	4.366513150886
3	47683	56324.040316783221	7.91992084164
3	47685	56325.126166653175	3.042502651886
3	47690	56327.397401240358	0.673728445319
3	47698	56336.23380297602	6.651691000896
3	47700	56336.712283405075	4.862655557298
3	47708	56342.192014309198	0.633553941552
3	47710	56345.491176606728	4.884887546184
3	47715	56347.345665876761	1.500474209919
3	47723	56357.129884837328	3.178502734497
3	47725	56359.909996796691	3.697373489078
3	47730	56365.187669271499	0.878015549278
3	47735	56374.461301212358	2.25218525605
3	47743	56384.388314398718	4.999601139266
3	47748	56396.954503321076	16.547803885043
3	47750	56399.842734249608	10.377443988296
3	47761	56414.437110916597	4.952845543941
3	47763	56416.454030565249	10.70214015155
3	47771	56424.32662650725	10.377855011046
3	47779	56424.720513605304	0.044739577501
3	47781	56425.651441837037	6.132083471
3	47783	56426.964086444615	2.754368778597
3	47797	56440.834711502696	16.148852036438
3	47802	56445.242553074352	9.428123322143
3	47804	56445.569202287284	6.599893892606
3	47806	56452.658225330695	13.014028541903
3	47808	56453.549806801264	12.601301369159
3	47810	56456.158157732551	16.185362220119
3	47818	56460.046842574081	3.573996229921
3	47820	56465.303352785729	8.047091450912
3	47831	56474.736105185382	2.992902273588
3	47836	56487.977082027455	20.096555134611
3	47847	56493.375815732564	2.108303768912
3	47849	56494.710254807603	21.02572590254
3	47851	56495.158139765761	3.086899576393
3	47859	56500.715575739007	21.779782049203
3	47861	56506.451106706905	14.425254506312
3	47866	56511.602919934025	15.563010345253
3	47874	56514.977394218368	15.771637607795
3	47876	56515.843363109859	1.047232073427
3	47878	56516.632369391688	4.553103719729
3	47883	56524.440819755046	14.097492244947
3	47885	56524.930795897009	3.023600223852
3	47896	56538.868016234427	1.954095884998
3	47898	56538.948005837995	1.772375594631
3	47900	56542.592423434603	4.344589354417
3	47908	56550.736188609522	1.582296330145
3	47910	56551.064567640265	1.756635432672
3	47915	56557.286273635614	0.076628968959
3	47920	56561.491083692445	2.888856682088
3	47925	56563.649168363055	1.387967809252
3	47933	56579.042238418655	8.946334410429
3	47935	56580.371087020439	4.345126938091
3	47940	56583.155375047354	0.362640284429
3	47948	56590.836480437861	4.310254487483
3	47950	56592.127451224248	5.676980321889
3	47961	56597.401695389919	1.740841082914
3	47966	56600.534556375236	3.44891014474
3	47968	56600.608916074429	3.799811739931
3	47973	56603.22029117314	4.471257139425
3	47978	56605.624074794259	2.700866302054
3	47983	56607.764033310741	4.362081523811
3	47985	56610.529732335049	3.870527699154
3	47996	56623.170231907293	0.088032592023
3	48001	56627.993954771424	12.767306329599
3	48003	56629.24346219947	13.834842074743
3	48005	56631.416181661795	3.956253188652
3	48010	56645.33863379308	0.66420649196
3	48021	56664.968340101811	12.828108863186
3	48023	56667.904817474171	9.714292995258
3	48025	56676.353126463958	16.458299121813
3	48030	56686.764345606066	2.539697581303
3	48035	56711.150648755529	2.31784253348
3	48040	56720.535655972312	2.3114108798
3	48045	56731.432228143097	5.588590285583
3	48050	56736.824602171633	0.741404900533
3	48055	56743.243746022502	1.016383075911
3	48063	56757.39286530605	6.033535595078
3	48068	56758.199208759593	0.533383639126
3	48070	56759.762450629706	3.589256340493
3	48075	56788.620895942846	1.97988269614
3	48080	56795.48755894598	0.900837056557
3	48085	56802.141333403922	4.414728207896
3	48090	56813.406691861873	6.574754684941
3	48095	56821.373278530845	7.014178216856
3	48103	56840.016311637554	2.626128887794
3	48105	56843.67667398681	4.598832776917
3	48113	56862.410038552179	0.939579938057
3	48115	56866.208400858462	10.550338035697
3	48120	56882.264251615687	0.986985191247
3	48125	56883.987460622847	0.380437676117
3	48130	56888.008018649935	2.494801004983
3	48144	56913.067817330387	3.865817169339
3	48149	56917.530846289779	20.497413490054
3	48151	56918.463932069869	11.018420162771
3	48156	56919.448085653662	3.660147869778
3	48158	56920.330529128547	9.261519256291
3	48160	56922.998408148094	4.140579659818
3	48165	56929.607193015275	2.711830300879
3	48170	56932.491199752053	1.684141430404
3	48175	56946.753340865409	1.675828206922
3	48183	56956.052113906976	1.419214058711
3	48188	56960.416374507546	5.087644775627
3	48193	56964.058845380004	4.01984898739
3	48195	56965.668637662513	4.00038213783
3	48200	56974.350033675162	0.595592526076
3	48211	56993.087912556465	13.392184589396
3	48213	56994.223830899532	3.078772527865
3	48218	56997.551524878038	2.256251548712
3	48220	56997.562462688054	15.396578871975
3	48225	57001.336423686836	0.193034492778
3	48230	57005.453561030016	3.967820476692
3	48238	57014.346996977503	8.874251425835
3	48240	57014.851719590757	0.754066281979
3	48245	57024.556275330379	3.709753044038
3	48253	57045.395707756054	0.198272812373
3	48258	57047.132711298385	6.686941710493
3	48260	57048.837964636057	3.397897622724
3	48268	57057.041180502715	6.921882352349
3	48270	57064.34542360695	11.548165369837
3	48278	57068.146540309189	0.506636852539
3	48280	57072.104814247598	4.636440669351
3	48288	57080.024517144303	7.820005854329
3	48293	57081.985366138403	3.831053904795
3	48298	57086.092312585568	4.855705758635
3	48300	57098.511220494598	14.335879425552
3	48305	57121.32661765078	6.198215272816
3	48310	57138.401196906587	1.98971610082
3	48315	57149.062810701133	2.275505325295
3	48323	57156.274127455897	3.964111567574
3	48328	57157.551071232002	0.200870605295
3	48333	57159.386463560205	6.901816467009
3	48335	57162.597908886554	4.473140128306
3	48340	57166.695924476086	0.318886199828
3	48348	57180.31516963004	5.034516501613
3	48350	57181.590480139204	5.868740809933
3	48358	57191.081758728683	1.704998437552
3	48366	57193.04169400236	1.646867902748
3	48374	57195.803067913462	0.090990194
3	48376	57196.355846889224	8.139900008765
3	48381	57200.288202790997	8.097534130477
3	48383	57201.384693593125	5.758763827081
3	48391	57211.968321825972	5.816382319667
3	48393	57212.708781230092	13.254013328283
3	48395	57218.125590636764	7.955942868282
3	48400	57219.649588528923	0.142720258029
3	48408	57230.707831179577	3.736722330424
3	48413	57236.986685694485	4.167605974294
3	48421	57242.777150403908	14.814189468585
3	48426	57253.325835833264	1.831085269835
3	48434	57257.755061697825	20.217425346679
3	48436	57260.593358624681	6.537115904395
3	48438	57262.325691834405	22.347693895921
3	48455	57268.006928323575	5.424867072235
3	48457	57272.015559517592	15.118681533848
3	48459	57273.117729893078	7.711318843075
3	48461	57275.058508523557	11.877748373217
3	48463	57275.868834326451	8.418002834038
3	48465	57278.054218756461	13.644107375269
3	48473	57282.338099841163	2.927266938019
3	48481	57286.239501448389	0.506634005599
3	48483	57290.55294680702	8.80914169155
3	48491	57296.58236842377	2.445778211223
3	48496	57297.91949316978	3.053319247288
3	48501	57305.147185988262	21.343828705904
3	48506	57308.347421203613	11.609263431787
3	48508	57312.892057871303	4.694167745975
3	48516	57317.491306029314	15.472585558111
3	48533	57329.453782928788	14.481252444368
3	48535	57332.13163222825	15.208030934849
3	48537	57333.684821024864	14.839005976347
3	48539	57336.576214913159	13.727805707281
3	48541	57337.315631984916	12.862195788209
3	48543	57339.228850914002	10.301412703595
3	48548	57341.280285132536	1.84028676956
3	48553	57359.214385379188	32.539701004102
3	48555	57359.684145455385	12.929473558753
3	48560	57364.189909367761	2.234400633941
3	48568	57380.005731548296	4.910185454844
3	48579	57386.593017043658	3.279230018767
3	48581	57387.37455703205	1.696969342423
3	48586	57390.392471486139	12.767142869924
3	48588	57398.618207539477	10.408070028306
3	48593	57401.752920459264	19.929814702815
3	48595	57405.442150686015	3.99569596405
3	48603	57427.529049718236	1.861778035942
3	48605	57428.029530192462	1.307000576503
3	48610	57430.036574490609	0.184495123337
3	48615	57433.429929091257	2.69652963383
3	48623	57435.789746366102	2.291854694707
3	48628	57439.393900880506	0.306306576359
3	48630	57439.817576444211	4.525514303663
3	48635	57448.167891507514	1.672700059103
3	48640	57454.143152221577	5.106441331157
3	48645	57461.102961934644	2.909311995827
3	48650	57462.047920699842	0.827578654495
3	48655	57467.447689882845	1.860015241718
3	48663	57486.19520965099	10.123336410636
3	48668	57488.105871840068	7.192972167416
3	48670	57490.879510714781	4.129742453204
3	48675	57497.397677789136	0.569119584441
3	48680	57505.44640438785	7.377109658486
3	48685	57507.92662844007	0.432414246611
3	48705	57522.202366199586	5.586468152073
3	48710	57525.800465558592	3.670838040738
3	48712	57527.863284162532	13.472000826391
3	48714	57528.273536503175	3.061200448819
3	48719	57529.575886103578	0.1164804115
3	48724	57531.496377903578	16.770252972117
3	48726	57531.704049765161	14.197778569259
3	48731	57533.888250116757	12.298316488013
3	48733	57536.403310900649	2.864133462421
3	48741	57539.956147642379	0.924910095851
3	48743	57541.161788139604	10.694174051479
3	48745	57541.832734301408	4.227398893131
3	48750	57548.286235417998	2.331908263247
3	48755	57548.821289801725	0.452488855084
3	48763	57557.793926803371	2.241592911027
3	48768	57559.673732168171	6.658352370213
3	48770	57560.103768609073	1.740956432429
3	48775	57562.956263469745	0.057535590078
3	48780	57582.252345351349	6.971836394933
3	48785	57586.049466720026	1.587482728982
3	48790	57600.376986840615	0.738639821355
3	48795	57601.504503481888	0.969420447153
3	48800	57604.456969938891	0.180714165092
3	48805	57607.893923646756	2.18773955217
3	48810	57614.566428888173	1.850410510393
3	48818	57629.097626471845	6.886301805148
3	48820	57634.607484153579	7.439919630889
3	48825	57640.118113702335	0.554307519135
3	48830	57642.837847406417	0.043287014727
3	48841	57661.559014522594	18.378086087771
3	48843	57661.761961936897	10.050075092177
3	48845	57663.265791299381	8.389037281026
3	48850	57671.017654076451	0.203370320098
3	48855	57674.592485936402	1.012517066964
3	48863	57689.988315725181	3.661256661543
3	48865	57696.275234668037	8.849150380737
3	48870	57699.206441466747	2.768399146481
3	48875	57712.733821602251	0.618228727259
3	48880	57714.244868271196	0.979763184177
3	48885	57719.988444348758	4.195605368415
3	48890	57730.006505786584	3.974805246278
3	48895	57736.737145178403	0.060143019797
3	48900	57740.578135393201	2.190435026245
3	48908	57748.722280346533	4.438938483191
3	48910	57750.571329772798	6.826647345251
3	48915	57764.838790599335	2.642479435626
3	48920	57766.839092813648	1.98993903501
3	48928	57777.917851620386	1.585806247304
3	48930	57778.013948120082	2.634437315825
3	48935	57784.524507253657	4.0646404293
3	48940	57795.894929843463	8.869755967846
3	48948	57810.404279091767	4.98597315469
3	48950	57814.997207695561	14.708047936579
3	48964	57823.418000644734	7.539671728944
3	48966	57825.086961123968	1.736546520125
3	48968	57825.699846000763	8.482271157427
3	48970	57826.459170979639	10.239360309225
3	48975	57828.404654786075	1.935797221378
3	48986	57845.201465938411	16.426199184477
3	48991	57849.930047082115	11.841550076431
3	48993	57850.608349687571	15.826811578025
3	48995	57853.099406508033	3.251707913712
3	49000	57856.753574100237	0.119145369971
3	49008	57857.453705203872	0.111817259066
3	49010	57859.84000295673	2.550469269516
3	49015	57862.705514503888	1.804010162803
3	49020	57886.634068252389	10.567232695798
3	49031	57919.942638870503	0.020868156291
3	49033	57924.033803176373	29.543490725209
3	49038	57924.330011559315	0.152467852919
3	49040	57932.943120712216	20.246039131966
3	49048	57941.218751018487	3.10948399292
3	49050	57942.674227856574	9.108818490919
3	49055	57949.480999456689	3.761084559018
3	49063	57963.013265909546	8.185889063025
3	49068	57968.351284714593	8.469709087082
3	49073	57975.39968023824	0.613270339525
3	49081	57980.683716073594	12.423617907896
3	49083	57983.067270314252	5.454241823279
3	49091	57991.860864480884	12.81251637971
3	49093	57995.276865100556	6.063724098416
3	49095	57996.68678730725	8.661976935971
3	49100	57999.039695041372	2.255372484853
3	49105	58010.132326575333	1.073621554772
3	49110	58021.58702659699	1.700056783887
3	49118	58032.356981267273	3.622207948559
3	49120	58034.549737865437	3.175865074969
3	49131	58037.447719741074	2.279410574835
3	49142	58051.098823158629	14.785172944148
3	49147	58053.690673315163	9.097506353366
3	49155	58057.866612817015	3.997838901231
3	49157	58058.396246606034	5.993315388697
3	49159	58058.672957274145	22.130025947097
3	49161	58062.013646294424	22.420040021823
3	49163	58067.799556321531	18.021652484508
3	49168	58071.661177848324	16.612131404192
3	49170	58071.937755404304	3.905484755463
3	49175	58078.390123078597	2.666934615024
3	49183	58093.448695770716	4.898148071775
3	49188	58097.811087342506	5.134249831241
3	49190	58100.097676277833	2.986270806725
3	49198	58102.01941429786	0.215408723432
3	49203	58108.618847018912	7.086402627987
3	49205	58109.29618045636	2.329277700715
3	49219	58121.018052783915	4.258830138092
3	49224	58122.28091457473	10.723987286716
3	49229	58124.763906598786	10.075693570949
3	49240	58132.619560996583	0.099477054899
3	49242	58133.650463237154	11.507177030864
3	49244	58134.938352874216	10.272400111156
3	49249	58138.658174063234	20.495812016539
3	49254	58141.062373739375	0.175485301414
3	49256	58151.511000389771	23.641609714704
3	49258	58155.582306913464	27.252361400206
3	49260	58161.746224875926	23.236677904398
3	49265	58188.139280347171	3.508375756632
3	49279	58206.818592623504	7.485182527881
3	49287	58212.129961592324	11.208580635064
3	49289	58213.844147014766	6.9674283593
3	49291	58215.383568451535	26.903606170597
3	49293	58215.857561213956	8.503069547445
3	49295	58221.239955610906	18.668342277511
3	49309	58234.383921905494	2.068486208064
3	49311	58236.801021329893	12.146722000715
3	49313	58239.172377160898	7.102287694171
3	49315	58239.797781333133	7.790632349746
3	49320	58244.783490320079	3.216466418289
3	49328	58252.474790811636	0.889957339344
3	49330	58260.493499057167	10.194356180337
3	49338	58276.811765911952	8.275000018293
3	49346	58282.968688396469	1.200264884807
3	49354	58287.770287766542	16.941285026904
3	49356	58289.447249670075	3.970649382507
3	49361	58291.409887730522	13.562235246201
3	49366	58293.276943764992	6.351374746574
3	49368	58297.26863481253	4.734263156832
3	49376	58304.036327739062	0.248853073975
3	49381	58304.719637311299	13.471035034252
3	49383	58305.006453753305	0.664005250711
3	49385	58306.148885783707	4.146950649742
3	49393	58315.495694624657	0.138279130103
3	49395	58324.96355837702	13.741603843535
3	49400	58328.716134412727	1.089093271084
3	49405	58338.395972337564	2.937385157182
3	49413	58363.060110281097	10.980947023513
3	49415	58371.307968455743	17.173001352997
3	49420	58384.969871468201	2.027603559065
3	49428	58391.48943550856	3.08016971673
3	49430	58393.890101523477	6.080157241907
3	49435	58399.374621407193	1.188806041148
3	49440	58411.5841433914	1.830006045528
3	49448	58427.52959409712	9.917950324854
3	49453	58432.663426099118	2.393593681002
3	49455	58433.314914765315	9.166244173402
3	49463	58439.685960278294	3.681607619222
3	49468	58445.062950660665	8.174991781418
3	49473	58446.994179920609	4.528278902755
3	49481	58454.20994696565	0.03895026472
3	49489	58455.281675698493	9.136310772355
3	49497	58456.176817502833	6.915154703627
3	49499	58458.056892861707	2.605214059864
3	49501	58461.157478278759	6.423947017549
3	49506	58465.892456402986	9.850071284985
3	49508	58468.890554147378	13.865840628472
3	49510	58469.488533694904	3.706491754424
3	49515	58483.021901141672	0.408232205325
3	49523	58505.937333465092	0.775151419093
3	49525	58507.672368734759	11.312634093748
3	49530	58516.84220394999	4.74618610879
3	49538	58525.124255948709	1.669652771517
3	49540	58526.390884684929	3.678804246833
3	49545	58535.718836096656	3.505691496718
3	49550	58555.215983985905	0.329668337423
3	49555	58575.623342048115	3.022768387307
3	49560	58589.572874933341	2.826331138459
3	49568	58596.264739208355	0.097229634054
3	49570	58599.025042125631	4.436423279868
3	49590	58612.006016772428	8.537785869326
3	49592	58612.914892924156	4.980667223247
3	49594	58613.304896038139	6.470665645632
3	49599	58617.071585379416	0.881144154828
3	49601	58624.288078909217	12.730323793914
3	49603	58624.447901798904	13.780607005928
3	49605	58625.594320279778	14.239780861194
3	49610	58629.123567911847	1.930328729337
3	49615	58640.936918758195	2.166499474336
3	49620	58647.266893537844	1.817345918136
3	49628	58664.242412700244	0.481051243585
3	49636	58665.198339052657	0.631011458025
3	49638	58669.208651903897	4.331559491568
3	49640	58671.425120952903	7.942605676934
3	49645	58674.024187785998	0.513359462636
3	49650	58686.574248888757	5.314952476685
3	49658	58689.907024182805	2.648935521723
3	49660	58691.206383643695	2.3218540603
3	49668	58700.938714179506	1.121308361048
3	49676	58711.494924265106	7.283602355
3	49681	58720.122018354328	22.343368889731
3	49686	58724.115112451124	3.909600957792
3	49688	58733.406757731705	23.284030647714
3	49690	58735.308926096352	18.517220003438
3	49695	58741.554009506644	5.857374033887
3	49700	58751.694903044187	3.469536338544
3	49705	58752.360844725328	0.416483349246
3	49713	58763.919302024588	5.841733771146
3	49715	58766.723421463939	4.323645072295
3	49720	58795.091489832233	2.479034499526
3	49731	58806.144773226493	7.654103027601
3	49733	58806.443686535418	3.078992394126
3	49735	58815.299551155217	9.355106791682
3	49740	58832.731725029088	8.452449208451
3	49745	58850.056255455453	2.154706133904
3	49750	58861.020633830865	1.5433876529
3	49755	58886.446395057165	2.593489210287
3	49760	58899.763118247854	4.585075406408
3	49768	58934.77531118415	4.087678744134
3	49776	58940.015213978786	7.408646613783
3	49778	58940.852727836777	4.956022520782
3	49780	58946.204477726755	7.363090625155
3	49791	58954.335195355798	1.225147100904
3	49793	58954.402399032095	0.357238086866
3	49801	58960.853215805478	2.138553540411
3	49803	58965.505461709016	17.091244030798
3	49805	58969.037703498149	9.0734498341
3	49813	58996.910423094214	2.531791516632
3	49815	59001.936723045574	6.816303863383
3	49823	59026.010605030185	0.956491523449
3	49831	59031.92816491068	7.22291876528
3	49833	59033.548050051971	2.727760470291
3	49853	59048.293393460384	0.555855717122
3	49855	59048.565757668807	17.134926939422
3	49857	59048.863551873408	13.424812898554
3	49859	59051.401764012123	12.938049198769
3	49864	59058.88015490077	16.33797250845
3	49866	59061.851903633666	18.284206542259
3	49868	59062.76850938885	4.885323303393
3	49876	59073.706581490923	28.75277938652
3	49881	59082.856790882661	3.473781829585
3	49883	59085.227128720533	18.384878716648
3	49885	59087.399882207929	13.894578634297
3	49899	59094.336884752271	0.807313915423
3	49904	59099.223049491302	0.75222456324
3	49909	59103.343024740229	15.264578025347
3	49914	59114.227776164582	24.110338835481
3	49922	59120.754325360734	1.112941249271
3	49924	59122.167336013108	14.015206437777
3	49926	59126.877647147575	34.976278015927
3	49928	59132.927763809623	33.494906780548
3	49936	59142.347211489184	26.432655159077
3	49938	59143.226206138242	6.707323309462
3	49940	59144.675428205653	3.588099349034
3	49945	59146.204937116266	0.767909624767
3	49950	59149.430634810913	1.27262009121
3	49955	59154.429245645411	2.460867906421
3	49966	59158.800586391108	2.661296275991
3	49968	59158.936798404163	0.919651731513
3	49976	59176.457893890427	0.467299747583
3	49978	59177.157504528932	18.858529148977
3	49983	59185.867599995172	20.708351543178
3	49991	59187.261086694717	1.305775127893
3	49993	59188.745993648736	6.947085693939
3	49999	59191.046113651043	1.552629940389
3	50001	59196.607680364193	9.428477461389
