version 2
run Testbench_1-933-20170516-19:20:34-45536
attr configname Testbench_1
attr datetime 20170516-19:20:34
attr experiment Testbench_1
attr inifile omnetpp.ini
attr iterationvars $0=250
attr iterationvars2 "$0=250, $repetition=33"
attr measurement $0=250
attr network Toll_road
attr processid 45536
attr repetition 33
attr replication #33
attr resultdir results
attr runnumber 933
attr seedset 933
param **.numBooths 3
param **.queue[*].serviceTime exponential(5.11s)
param **.source.interArrivalTime exponential(5.854s)
param **.source.numJobs 1000

vector 0  Toll_road.queue[0]  jobsProcessed:vector  ETV
attr interpolationmode  none
attr source  queueingTime
attr title  "jobs processed, vector"
vector 1  Toll_road.sink  lifeTime:vector  ETV
attr interpolationmode  none
attr title  "lifetime of arrived jobs, vector"
attr unit  s
0	3	12.143218671707	0
0	8	20.796204808531	0
0	13	26.723122337387	0
0	17	28.850972997989	1.288521306814
0	23	38.358210722279	0
0	28	48.437094547309	0
0	33	57.2393494752	0
0	37	60.564063820314	1.549282938425
0	43	68.912650742458	0
0	48	81.65147141923	0
0	53	90.151647358532	0
0	58	99.436552477682	0
0	65	110.708115667184	9.465899401875
0	70	113.266245821997	8.22064678029
0	78	117.248994204063	6.255020166881
0	80	123.964058995421	10.589069880684
0	85	125.358943058994	9.895703914024
0	87	130.647826812649	6.03524899836
0	93	140.556894898709	0
0	97	144.660576369633	0.489162596496
0	105	153.056987145274	2.413474652901
0	116	162.714169701444	10.754901730557
0	121	163.390517683595	8.806190118517
0	126	164.292322632131	4.032338504701
0	137	169.536845047902	7.788892170991
0	139	172.002238483154	8.711082924897
0	150	180.288684234161	16.547763343871
0	152	180.321718148497	15.153398460701
0	166	193.259699309815	26.579304906303
0	171	199.503111329571	32.30650326588
0	173	200.886331053229	22.261419971104
0	178	204.00731434057	25.364141347811
0	183	216.577823353825	37.633936630479
0	191	222.803653278927	34.960656875981
0	196	228.046650308342	39.249511927654
0	198	233.819912905244	42.693550645723
0	200	238.012623483311	44.829322273697
0	208	241.064113003201	46.195459661292
0	210	248.469125812946	45.579578497076
0	221	253.300145764988	36.798917907592
0	223	256.314917970771	37.355770579179
0	228	264.693902677921	45.39497005749
0	230	271.986645237408	48.278781203403
0	232	275.74184575538	35.756654414378
0	243	290.254866043064	49.575132548636
0	248	293.166560862947	43.914357046942
0	250	303.456025540893	53.152284655439
0	252	307.189190799049	55.830896043439
0	257	315.577343059885	57.387616292484
0	262	321.002519714541	37.070481139065
0	264	329.050320650682	44.82741531166
0	275	340.145577654526	53.026648067872
0	277	341.598956804404	49.361196925761
0	279	349.147329963208	34.66816581169
0	287	355.952969202725	39.721720922635
0	301	375.899931018996	38.116307381512
0	306	378.349067574851	40.277419928121
0	314	389.829227618921	51.680277425567
0	319	396.692368359324	43.655233171341
0	321	399.264712478549	46.074713164377
0	326	406.795032535339	44.652994466819
0	328	410.688656201845	44.329670126967
0	330	411.190436772203	39.751830733369
0	332	416.657557940139	41.430146731092
0	334	419.9223737269	42.022382806446
0	336	421.068300516597	36.469340364358
0	338	422.18351480035	34.620074955872
0	343	425.811358300444	32.958193114589
0	351	431.123216709598	26.105276743882
0	353	431.982515925934	8.787733418667
0	355	432.533755588136	6.383124987162
0	363	438.29905622446	8.416642922589
0	365	444.986206131697	9.125761485537
0	367	450.329911024735	13.792559244404
0	373	475.187685359118	0
0	377	481.526662923294	1.573161764264
0	383	484.084485175651	0
0	388	500.782578754416	0
0	393	509.792700277823	0
0	397	512.694112596819	2.056114901319
0	403	514.468708577007	0
0	408	537.273510632594	0
0	413	539.838797810794	0
0	426	562.836503619578	20.537307657366
0	428	563.503931769733	20.726498521472
0	430	564.035669881542	19.311944740886
0	432	565.310510092126	13.180790591471
0	437	567.196980290364	0.581152981647
0	443	575.988557491515	0
0	448	585.818621849359	0
0	458	591.853301788488	5.408278221887
0	466	595.775576968163	8.607722175144
0	471	596.799714167227	5.848658835233
0	476	600.410570661286	6.187288825494
0	478	607.001621288605	12.616991297624
0	483	608.574289270894	12.375713346127
0	485	608.923133475196	11.923903201822
0	493	618.501577968214	10.951781811911
0	495	620.626294123113	9.355108133761
0	500	623.73790305304	6.548188937121
0	511	632.50798466936	10.766736812597
0	513	639.769168377221	15.558976627725
0	515	639.771057550254	14.541343193121
0	523	651.853793235994	25.38981120193
0	525	655.064751013333	10.50810842832
0	527	660.731983624849	9.21462364767
0	533	677.509913168001	0
0	538	692.556254933308	0
0	543	714.733160643263	0
0	548	719.391842922508	0
0	552	729.735777312322	4.247727224569
0	557	737.761159776952	4.261638816782
0	563	741.587176298949	0
0	567	750.242031484051	2.035207695738
0	575	754.86181744435	2.750583154212
0	577	757.720008913102	3.284837763564
0	591	776.022324362677	16.103409602095
0	596	778.391305845619	12.311177633328
0	613	791.877342336925	18.731317052817
0	630	796.034183712057	22.276822821479
0	632	806.8721021917	29.21988936701
0	634	808.402147835386	26.698261369764
0	636	811.057009726915	27.447437538647
0	638	812.16978367143	26.921031184999
0	640	812.314318154732	26.62295114061
0	642	813.876348192366	23.399908452784
0	644	816.793343274486	24.116083194721
0	646	821.328961117532	27.858367900965
0	648	822.055864825748	27.98631967892
0	653	825.125595642368	30.979601225236
0	655	829.287251863573	33.491412704167
0	660	831.471142250006	7.681662967757
0	665	840.088128113529	9.618292815441
0	670	846.679873170367	14.927682835792
0	678	858.945929010699	16.81588977719
0	686	868.922648264887	10.870615642969
0	691	870.946091002292	12.206981049979
0	693	871.831332098564	11.951965745007
0	707	879.501122365478	19.498054892807
0	709	882.841783438016	13.518355344217
0	711	885.736333082328	13.213052090173
0	716	892.955422455239	18.095640670307
0	718	893.173319226788	18.215685074169
0	720	894.391103402949	16.652859686356
0	722	897.326993563421	11.038522705481
0	727	902.13150232692	2.878787823571
0	732	904.699946757744	2.145060662408
0	738	910.34131682946	0
0	742	915.674799308312	1.212801347302
0	748	920.564979776953	0
0	755	926.749902041865	1.082050513178
0	760	928.164962288685	1.783567111107
0	762	928.423726686458	0.643924258976
0	767	932.215380238475	2.116321578385
0	773	935.587238549885	0
0	778	942.852984228549	0
0	794	956.915839781359	13.799163269598
0	799	963.91292206685	13.018677089089
0	807	968.56269194014	14.306653351585
0	812	972.857186884179	16.495826976988
0	820	992.231008975236	35.806175736671
0	825	1001.728379199191	37.980269515147
0	827	1002.539299143047	37.599025426028
0	844	1022.152116598164	53.684830257689
0	846	1024.491518758849	52.82740409168
0	860	1044.974919408836	54.765804937286
0	862	1045.803457708052	54.05032989073
0	867	1048.428819463134	54.011464472524
0	890	1087.416589810117	81.221856496319
0	892	1087.595678201797	77.408978867224
0	894	1094.541198486981	81.470728258371
0	899	1102.169640350068	88.954386238683
0	904	1102.444450217659	80.31047264177
0	909	1107.402632802989	74.372330077806
0	911	1107.485080050938	68.93752004292
0	916	1110.561755826822	69.874797109681
0	918	1112.703862927179	69.085475935614
0	920	1118.915103878215	71.548482756305
0	922	1123.740284782792	67.854696116549
0	930	1126.191258193104	65.771495054451
0	935	1129.276316443353	67.942866356588
0	937	1130.500760562811	63.267951434423
0	945	1139.2994210547	64.614432410363
0	947	1142.697197939354	67.364534373479
0	949	1147.992522426888	70.110077958963
0	957	1154.925620121396	60.07542239487
0	962	1164.11769451764	61.711336790325
0	967	1167.405127266941	60.074246625893
0	969	1181.866269822271	73.991269262135
0	971	1183.657169339347	59.82238075353
0	982	1196.870039915412	72.351392249406
0	990	1202.721551904128	73.945311815801
0	992	1206.516014777963	72.756490346843
0	994	1206.617781292054	68.580209899856
0	1008	1213.230402235827	60.425548955133
0	1013	1214.383360134418	60.625920128016
0	1015	1216.039547925529	57.078460352256
0	1017	1220.64342162787	54.939753467796
0	1028	1230.921090891815	44.150648456767
0	1030	1231.429443509858	42.996234040474
0	1032	1233.203289820771	39.278903500504
0	1037	1239.896088098033	41.88004430164
0	1039	1241.306277697442	41.325721480303
0	1041	1241.58198207318	32.982020973624
0	1049	1253.528302997353	44.7438867627
0	1057	1256.820853913186	46.649158075944
0	1059	1259.658262566317	49.380621197531
0	1070	1265.591329709034	52.300531573025
0	1075	1266.811256856682	45.745010889229
0	1077	1267.728617513208	42.974696182421
0	1079	1271.203896400556	44.961161007273
0	1081	1274.750977647764	36.918668731945
0	1083	1280.781757203055	37.440956623484
0	1085	1281.930190798424	29.004056577206
0	1087	1286.11304106103	30.412107730037
0	1095	1292.175950711902	36.186839053633
0	1100	1298.197426468936	38.039774402293
0	1102	1301.782780701742	41.558295019689
0	1110	1305.003478848689	42.94777951085
0	1145	1344.244875530161	77.851748693716
0	1153	1354.088465734063	65.209004120334
0	1161	1363.914980098387	73.791194364911
0	1175	1377.87106433968	80.354181588317
0	1177	1378.466441743069	75.949733725977
0	1179	1378.902257006511	75.414257783101
0	1181	1382.260267909028	74.021235589912
0	1183	1387.134955975434	76.94493661616
0	1185	1387.475700147725	75.025854495098
0	1187	1387.968524979259	74.56690239158
0	1189	1388.880136232609	65.973598686971
0	1203	1409.759021602612	85.554980516524
0	1212	1422.852153081944	92.032372953863
0	1214	1427.28284209379	91.900266966518
0	1216	1430.395096669792	94.282696990146
0	1218	1438.458340452173	100.56864546797
0	1220	1449.124271499728	110.83448241117
0	1222	1451.140897589507	100.24313303888
0	1224	1452.233545671711	100.54616766697
0	1226	1454.469066114999	99.970380406786
0	1228	1455.710288260593	99.283462468299
0	1230	1460.113867448988	94.048475741605
0	1232	1468.385768511899	101.28760310462
0	1234	1471.146582357735	99.27922865985
0	1236	1483.178722029917	108.68757120178
0	1238	1488.431614107999	98.984619726846
0	1240	1489.43231080659	99.20743998341
0	1242	1494.226604898442	101.50479259848
0	1244	1498.992922112198	92.243624154707
0	1246	1498.993151235061	85.948066706104
0	1248	1505.965101730189	91.065571396554
1	5	17.368487170578	5.225268498871
1	10	25.321663852849	4.525459044318
1	18	28.850972997989	2.127850660602
1	20	30.667012757256	3.104561066081
1	25	41.056368305197	2.698157582918
1	30	55.179818993581	6.742724446272
1	38	60.564063820314	3.324714345114
1	40	60.585192956881	1.570412074992
1	45	75.634576709398	6.72192596694
1	50	83.664886491698	2.013415072468
1	55	94.711567802081	4.559920443549
1	66	110.708115667184	11.271563189502
1	71	113.266245821997	12.024029556688
1	79	117.248994204063	12.203395162356
1	81	123.964058995421	12.970084958239
1	86	125.358943058994	11.983953944257
1	88	130.647826812649	15.184587667679
1	90	135.547119480801	10.934541666512
1	98	144.660576369633	4.103681470924
1	106	153.056987145274	8.885573372137
1	117	162.714169701444	12.070657209071
1	122	163.390517683595	11.431249712708
1	127	164.292322632131	9.707995067053
1	138	169.536845047902	9.276860920472
1	140	172.002238483154	10.254285606243
1	151	180.288684234161	16.997528675904
1	153	180.321718148497	16.580797258207
1	167	193.259699309815	28.091379622019
1	172	199.503111329571	32.822716926059
1	174	200.886331053229	33.689722989538
1	179	204.00731434057	25.382403258445
1	184	216.577823353825	37.934650361066
1	192	222.803653278927	43.859766555581
1	197	228.046650308342	40.203653905396
1	199	233.819912905244	45.022774524556
1	201	238.012623483311	46.88626122379
1	209	241.064113003201	47.880811793587
1	211	248.469125812946	53.600472471037
1	222	253.300145764988	50.410598449118
1	224	256.314917970771	39.813690113375
1	229	264.693902677921	45.734755286329
1	231	271.986645237408	52.687712616977
1	233	275.74184575538	52.033981721375
1	244	290.254866043064	50.269674702062
1	249	293.166560862947	52.486827368519
1	251	303.456025540893	54.203821724888
1	253	307.189190799049	56.885449913595
1	258	315.577343059885	64.219048304275
1	263	321.002519714541	62.81279294714
1	265	329.050320650682	45.118282075206
1	276	340.145577654526	55.922672315504
1	278	341.598956804404	54.48002721775
1	280	349.147329963208	56.909570084565
1	288	355.952969202725	41.473805051207
1	302	375.899931018996	59.668682738906
1	307	378.349067574851	40.565443937367
1	315	389.829227618921	51.757579972191
1	320	396.692368359324	58.54341816597
1	322	399.264712478549	46.227577290566
1	327	406.795032535339	53.605033221167
1	329	410.688656201845	48.546618133325
1	331	411.190436772203	44.831450697325
1	333	416.657557940139	45.218951901305
1	335	419.9223737269	44.694962517853
1	337	421.068300516597	43.168309596143
1	339	422.18351480035	37.584554648111
1	344	425.811358300444	38.247918455966
1	352	431.123216709598	38.270051523743
1	354	431.982515925934	26.964575960218
1	356	432.533755588136	9.338973080869
1	364	438.29905622446	12.148425623486
1	366	444.986206131697	15.103792829826
1	368	450.329911024735	14.469466378575
1	370	452.962911546269	16.425559765938
1	378	481.526662923294	6.338977564176
1	380	483.131154664882	3.177653505852
1	385	491.670699802056	7.586214626405
1	390	503.662546336753	2.879967582337
1	398	512.694112596819	2.901412318996
1	400	513.158095773216	2.520098077716
1	405	520.491204206283	6.022495629276
1	410	538.566675930254	1.29316529766
1	427	562.836503619578	22.997705808784
1	429	563.503931769733	21.204735807521
1	431	564.035669881542	21.258236633281
1	433	565.310510092126	20.58678495147
1	438	567.196980290364	15.067260789709
1	440	573.391691836098	6.775864527381
1	445	584.09321079706	8.104653305545
1	459	591.853301788488	6.034679939129
1	467	595.775576968163	9.330553401562
1	472	596.799714167227	9.631859374208
1	477	600.410570661286	9.459515329292
1	479	607.001621288605	12.778339452813
1	484	608.574289270894	14.189659279913
1	486	608.923133475196	12.724557550429
1	494	618.501577968214	21.50234769484
1	496	620.626294123113	13.07649796681
1	501	623.73790305304	12.466717063688
1	512	632.50798466936	15.318270553441
1	514	639.769168377221	18.027920520458
1	516	639.771057550254	15.560865800758
1	524	651.853793235994	26.624078878861
1	526	655.064751013333	28.600768979269
1	528	660.731983624849	16.175341039836
1	530	666.049294454604	14.531934477425
1	535	686.122600448937	8.612687280936
1	540	696.046231967517	3.489977034209
1	545	717.780866402637	3.047705759374
1	553	729.735777312322	10.343934389814
1	558	737.761159776952	12.273109689199
1	560	741.025516230241	7.525995270071
1	568	750.242031484051	8.654855185102
1	576	754.86181744435	6.654993656037
1	578	757.720008913102	5.608774622964
1	592	776.022324362677	21.587153213139
1	597	778.391305845619	18.472391085037
1	614	791.877342336925	25.797214124634
1	631	796.034183712057	22.888158427949
1	633	806.8721021917	33.114741301122
1	635	808.402147835386	30.749935010696
1	637	811.057009726915	29.353123261293
1	639	812.16978367143	28.560211483162
1	641	812.314318154732	27.065565668301
1	643	813.876348192366	28.184981178244
1	645	816.793343274486	26.316903534904
1	647	821.328961117532	28.651701037767
1	649	822.055864825748	28.585271609181
1	654	825.125595642368	31.05605049554
1	656	829.287251863573	35.141257446441
1	661	831.471142250006	35.6753030906
1	666	840.088128113529	16.29864883128
1	671	846.679873170367	16.210037872279
1	679	858.945929010699	27.193738676124
1	687	868.922648264887	26.792609031378
1	692	870.946091002292	12.894058380374
1	694	871.831332098564	13.092222146251
1	708	879.501122365478	19.621756011921
1	710	882.841783438016	22.838715965345
1	712	885.736333082328	16.412904988529
1	717	892.955422455239	20.432141463084
1	719	893.173319226788	18.313537441856
1	721	894.391103402949	19.43346925033
1	723	897.326993563421	19.588749846828
1	728	902.13150232692	15.84303146898
1	733	904.699946757744	5.447232254395
1	735	908.336012943209	5.781126847873
1	743	915.674799308312	5.333482478852
1	745	917.067475966974	2.605478005964
1	756	926.749902041865	6.184922264912
1	761	928.164962288685	2.497110759998
1	763	928.423726686458	2.04233150888
1	768	932.215380238475	4.435577810993
1	770	934.730862710744	4.631804050654
1	775	940.926311184706	5.339072634821
1	795	956.915839781359	14.06285555281
1	800	963.91292206685	20.796245555089
1	808	968.56269194014	17.668446962379
1	813	972.857186884179	18.601148295624
1	821	992.231008975236	35.869649068045
1	826	1001.728379199191	45.303545960626
1	828	1002.539299143047	38.791189459003
1	845	1022.152116598164	57.211842881145
1	847	1024.491518758849	56.024232418374
1	861	1044.974919408836	73.310804741667
1	863	1045.803457708052	55.594343236502
1	868	1048.428819463134	56.675691645812
1	891	1087.416589810117	92.999234819507
1	893	1087.595678201797	81.400944887999
1	895	1094.541198486981	84.354499152408
1	900	1102.169640350068	89.099170121458
1	905	1102.444450217659	89.229196106274
1	910	1107.402632802989	85.2686552271
1	912	1107.485080050938	74.454777325755
1	917	1110.561755826822	72.014195818804
1	919	1112.703862927179	72.016904210038
1	921	1118.915103878215	75.29671688665
1	923	1123.740284782792	76.373663660882
1	931	1126.191258193104	70.305669526861
1	936	1129.276316443353	68.8565533047
1	938	1130.500760562811	69.167310476046
1	946	1139.2994210547	72.066611926312
1	948	1142.697197939354	68.012209295017
1	950	1147.992522426888	72.659858861013
1	958	1154.925620121396	77.043175653471
1	963	1164.11769451764	69.267496791114
1	968	1167.405127266941	64.998769539626
1	970	1181.866269822271	74.535389181223
1	972	1183.657169339347	75.782168779211
1	983	1196.870039915412	73.035251329595
1	991	1202.721551904128	78.202904238122
1	993	1206.516014777963	77.739774689636
1	995	1206.617781292054	72.858256860934
1	1009	1213.230402235827	75.192830843629
1	1014	1214.383360134418	61.578506853724
1	1016	1216.039547925529	62.282107919127
1	1018	1220.64342162787	61.682334054597
1	1029	1230.921090891815	65.217422731741
1	1031	1231.429443509858	44.65900107481
1	1033	1233.203289820771	44.770080351387
1	1038	1239.896088098033	45.971701777766
1	1040	1241.306277697442	43.290233901049
1	1042	1241.58198207318	41.601425856041
1	1050	1253.528302997353	44.928341897797
1	1058	1256.820853913186	48.036437678533
1	1060	1259.658262566317	49.486566729075
1	1071	1265.591329709034	55.313688340248
1	1076	1266.811256856682	53.520458720673
1	1078	1267.728617513208	46.662371545755
1	1080	1271.203896400556	46.449975069769
1	1082	1274.750977647764	48.508242254481
1	1084	1280.781757203055	42.949448287236
1	1086	1281.930190798424	38.589390218853
1	1088	1286.11304106103	33.186906839812
1	1096	1292.175950711902	36.475017380909
1	1101	1298.197426468936	42.208314810667
1	1103	1301.782780701742	41.625128635099
1	1111	1305.003478848689	44.778993166636
1	1146	1344.244875530161	82.189176192322
1	1154	1354.088465734063	87.695338897618
1	1162	1363.914980098387	75.035518484658
1	1176	1377.87106433968	87.747278606204
1	1178	1378.466441743069	80.949558991706
1	1180	1378.902257006511	76.385548989419
1	1182	1382.260267909028	78.772268685618
1	1184	1387.134955975434	78.895923656318
1	1186	1387.475700147725	77.285680788451
1	1188	1387.968524979259	75.518679326632
1	1190	1388.880136232609	75.47851364493
1	1204	1409.759021602612	86.852484056974
1	1213	1422.852153081944	98.648111995856
1	1215	1427.28284209379	96.463061965709
1	1217	1430.395096669792	95.01252154252
1	1219	1438.458340452173	102.34594077253
1	1221	1449.124271499728	111.23457651552
1	1223	1451.140897589507	112.85110850095
1	1225	1452.233545671711	101.33578112108
1	1227	1454.469066114999	102.78168811026
1	1229	1455.710288260593	101.21160255238
1	1231	1460.113867448988	103.68704165669
1	1233	1468.385768511899	102.32037680452
1	1235	1471.146582357735	104.04841695045
1	1237	1483.178722029917	111.31136833203
1	1239	1488.431614107999	113.94046327986
1	1241	1489.43231080659	99.985316425437
1	1243	1494.226604898442	104.00173407526
1	1245	1498.992922112198	106.27110981224
1	1247	1498.993151235061	92.24385327757
1	1249	1505.965101730189	92.920017201232
1	1251	1508.088846658988	93.189316325353
