version 2
run Testbench_1-272-20170516-19:18:06-49612
attr configname Testbench_1
attr datetime 20170516-19:18:06
attr experiment Testbench_1
attr inifile omnetpp.ini
attr iterationvars $0=75
attr iterationvars2 "$0=75, $repetition=72"
attr measurement $0=75
attr network Toll_road
attr processid 49612
attr repetition 72
attr replication #72
attr resultdir results
attr runnumber 272
attr seedset 272
param **.numBooths 3
param **.queue[*].serviceTime exponential(5.11s)
param **.source.interArrivalTime exponential(5.854s)
param **.source.numJobs 1000

vector 0  Toll_road.queue[0]  jobsProcessed:vector  ETV
attr interpolationmode  none
attr source  queueingTime
attr title  "jobs processed, vector"
vector 1  Toll_road.sink  lifeTime:vector  ETV
attr interpolationmode  none
attr title  "lifetime of arrived jobs, vector"
attr unit  s
0	3	1.666325860993	0
0	7	12.022631649423	7.153803318378
0	13	21.136956518475	0
0	18	22.822399071753	0
0	22	24.107743530547	0.16873846811
0	27	37.776389702708	2.286219966
0	33	41.122074696397	0
0	37	43.370179983223	1.209299714229
0	42	49.474420352156	4.370417397529
0	48	60.847592587831	0
0	52	64.624794316113	3.072140694753
0	60	71.564435007957	5.45950879862
0	62	71.664681488947	3.547417294178
0	68	77.754061722415	0
0	73	86.369150473515	0
0	80	95.276883093147	6.205279546063
0	82	96.694268277599	3.699171801439
0	88	101.445196439012	0
0	93	122.199867791901	0
0	112	140.899803156651	14.095674821345
0	129	153.947381380525	26.687492776138
0	131	154.448344828873	24.825688233194
0	136	159.04870213297	27.176461369395
0	141	162.734914094925	29.674897875483
0	143	163.252068850324	26.536361245956
0	145	166.302814016677	21.880881824807
0	156	172.359474918331	27.865573298684
0	164	180.497391193915	34.105200850228
0	169	186.881082451869	38.415628625719
0	171	187.265574319	35.359804882286
0	173	188.380825265271	32.525431989463
0	175	189.744760740039	27.732896555742
0	186	205.080143026643	36.972186053634
0	188	207.300842417006	37.575270189279
0	193	214.960598628384	43.894651737234
0	195	216.520390038468	39.00632719701
0	197	217.24774740501	37.504419457891
0	208	233.202535785867	47.040706561566
0	222	242.304389121002	50.470869270885
0	224	243.412311613764	43.204391584237
0	226	248.230654320905	47.933173533556
0	231	251.719486492167	43.991852231163
0	245	270.724420126213	52.046479485934
0	247	276.043356914195	54.206400001792
0	255	281.195496302	49.086383948427
0	263	284.504289004402	49.131228888208
0	280	299.119096477607	59.773686467837
0	282	301.933035148848	61.018326628376
0	284	306.465292053521	64.538997719566
0	286	309.001986707905	60.472378141812
0	300	320.178711369125	66.969368224407
0	305	323.973149837504	65.831918752491
0	307	331.344604318787	63.579572431036
0	318	356.62570698681	86.00915713073
0	320	357.828390516676	79.814156016916
0	322	360.53330610085	80.156866393927
0	324	364.076539588832	80.496881168591
0	329	367.996718889838	83.566592151906
0	331	368.609136895489	82.539942114749
0	336	374.983416964084	88.824631173897
0	341	376.585906030777	85.064664535512
0	343	379.960557465062	87.755451840507
0	345	380.561209694627	82.50602211943
0	347	384.052281447469	73.43783521475
0	349	388.65362392983	76.182605306241
0	351	394.993547763517	82.340130793167
0	357	420.559269595344	102.80590503877
0	359	423.742635740644	101.25595435116
0	361	441.127185294337	108.07464524199
0	363	445.65256240408	108.17680188085
0	365	447.979087354689	109.27932076877
0	367	457.743345535056	90.061287426055
0	369	463.779141679227	90.666041516984
0	371	469.963630058498	94.622443226331
0	373	478.480475116489	82.839064990618
1	8	12.022631649423	10.35630578843
1	10	13.88930026076	9.020471929715
1	15	21.238854783443	0.101898264968
1	23	24.107743530547	1.285344458794
1	28	37.776389702708	13.837384640271
1	30	38.899357132428	3.40918739572
1	38	43.370179983223	2.248105286826
1	43	49.474420352156	7.313540083162
1	45	53.207046691181	8.103043736554
1	53	64.624794316113	3.777201728282
1	61	71.564435007957	10.011781386597
1	63	71.664681488947	5.55975527961
1	65	76.991358503473	8.874094308704
1	70	83.042564084684	5.288502362269
1	81	95.276883093147	8.907732619632
1	83	96.694268277599	7.622664730515
1	85	96.809586931877	3.814490455717
1	90	108.768202559014	7.323006120002
1	113	140.899803156651	18.69993536475
1	130	153.947381380525	27.143253045219
1	132	154.448344828873	27.188456224486
1	137	159.04870213297	29.426045537291
1	142	162.734914094925	30.86267333135
1	144	163.252068850324	30.192052630882
1	146	166.302814016677	29.587106412309
1	157	172.359474918331	27.937542726461
1	165	180.497391193915	36.003489574268
1	170	186.881082451869	40.488892108182
1	172	187.265574319	38.80012049285
1	174	188.380825265271	36.475055828557
1	176	189.744760740039	33.889367464231
1	187	205.080143026643	43.068278842346
1	189	207.300842417006	39.192885443997
1	194	214.960598628384	45.235026400657
1	196	216.520390038468	45.454443147318
1	198	217.24774740501	39.733684563552
1	209	233.202535785867	53.459207838748
1	223	242.304389121002	56.142559896701
1	225	243.412311613764	51.578791763647
1	227	248.230654320905	48.022734291378
1	232	251.719486492167	51.422005704818
1	246	270.724420126213	62.996785865209
1	248	276.043356914195	57.365416273916
1	256	281.195496302	59.358539389597
1	264	284.504289004402	52.395176650829
1	281	299.119096477607	63.746036361413
1	283	301.933035148848	62.587625139078
1	285	306.465292053521	65.550583533049
1	287	309.001986707905	67.07569237395
1	301	320.178711369125	71.649102803032
1	306	323.973149837504	70.763806692786
1	308	331.344604318787	73.203373233774
1	319	356.62570698681	88.860675099059
1	321	357.828390516676	87.211840660596
1	323	360.53330610085	82.51907160109
1	325	364.076539588832	83.700099881909
1	330	367.996718889838	84.417060469597
1	332	368.609136895489	84.179010157557
1	337	374.983416964084	88.914222183344
1	342	376.585906030777	90.42712024059
1	344	379.960557465062	88.439315969797
1	346	380.561209694627	88.356104070072
1	348	384.052281447469	85.997093872272
1	350	388.65362392983	78.039177697111
1	352	394.993547763517	82.522529139928
1	358	420.559269595344	107.90585262499
1	360	423.742635740644	105.98927118407
1	362	441.127185294337	118.64050390485
1	364	445.65256240408	112.60002235174
1	366	447.979087354689	110.50332683146
1	368	457.743345535056	119.04357894913
1	370	463.779141679227	96.097083570226
1	372	469.963630058498	96.850529896255
1	374	478.480475116489	103.13928828432
1	376	483.895463742656	88.254053616785
