version 2
run Testbench_1-840-20170516-19:20:09-56636
attr configname Testbench_1
attr datetime 20170516-19:20:09
attr experiment Testbench_1
attr inifile omnetpp.ini
attr iterationvars $0=225
attr iterationvars2 "$0=225, $repetition=40"
attr measurement $0=225
attr network Toll_road
attr processid 56636
attr repetition 40
attr replication #40
attr resultdir results
attr runnumber 840
attr seedset 840
param **.numBooths 3
param **.queue[*].serviceTime exponential(5.11s)
param **.source.interArrivalTime exponential(5.854s)
param **.source.numJobs 1000

vector 0  Toll_road.queue[0]  jobsProcessed:vector  ETV
attr interpolationmode  none
attr source  queueingTime
attr title  "jobs processed, vector"
vector 1  Toll_road.sink  lifeTime:vector  ETV
attr interpolationmode  none
attr title  "lifetime of arrived jobs, vector"
attr unit  s
0	3	2.46502042658	0
0	10	13.314075551107	9.512653228627
0	18	26.293545472178	14.852088285597
0	29	35.299636203883	21.359911705229
0	31	41.019653195712	18.842292682026
0	33	49.546370345644	18.877819863597
0	41	57.09702484338	24.072430218151
0	46	64.344782302859	29.393518877906
0	57	79.304546083916	29.534799933447
0	65	83.062713114101	30.590506392233
0	73	87.907901746656	24.790881469055
0	75	95.249249367494	23.815002459863
0	77	95.744741190431	22.859127709406
0	79	96.787890890612	18.392305824875
0	81	103.140045833674	22.751210461936
0	92	109.574805296902	27.268781705504
0	106	135.306284335182	49.136860110021
0	111	138.880492608219	52.062718433309
0	119	141.728056680379	38.036857413851
0	124	143.786143702496	39.836473937689
0	126	147.552634979603	39.170441848881
0	131	151.015565719351	40.720416088702
0	139	166.401356292861	48.569811983952
0	144	170.095514605967	37.025111342284
0	146	173.645824980743	38.529135268309
0	151	174.151805573245	38.125122953747
0	156	182.479263015417	43.373556626232
0	158	183.909475473251	42.692329572457
0	160	188.494467936903	45.022754963365
0	162	190.25194444142	41.207139200246
0	167	191.849668880357	29.775324593392
0	169	194.411678427194	30.156552835425
0	174	200.426095599765	30.688598815849
0	179	204.364348852635	30.681447562951
0	181	209.763208825034	31.012975235417
0	189	218.697590787151	27.308479627127
0	191	219.374967874187	23.355685096983
0	193	224.623621971119	22.500998171753
0	195	233.29487318293	22.533147818285
0	197	233.978924416224	17.950997706025
0	205	238.806166929671	3.642357067217
0	219	245.480241374763	9.807833793679
0	227	247.015752932632	7.754688937562
0	241	250.798498740547	8.670916014811
0	243	254.670999950162	10.704337946763
0	245	256.711431609212	12.489457877666
0	253	264.549451120986	17.872716462032
0	255	269.513391263176	22.819330712725
0	260	275.001820790783	27.279446949655
0	262	278.196386209608	28.226294022619
0	264	280.707290347261	30.620790232651
0	266	284.213798967646	34.03730723633
0	268	285.080771121392	23.399046248763
0	273	294.942160712353	30.983281035865
0	275	298.765138695756	26.541313073007
0	277	299.071310824805	13.5551558535
0	282	303.752666795722	4.286962886501
0	287	314.372728670308	0.662193289345
0	295	319.532506823787	2.249215292506
0	297	319.896676218597	0.536765845418
0	303	323.357356680225	0
0	308	335.13373055527	0
0	313	355.634001544057	0
0	317	363.242744819705	7.338530702373
0	323	370.167790780345	0
0	328	373.154880689729	0
0	333	377.75918988666	0
0	340	389.891839828159	5.646417922431
0	351	403.572007649901	15.534346086252
0	356	406.049785292518	14.379318189317
0	358	407.673480625552	15.408371926274
0	360	416.74827716947	17.248885336472
0	365	420.44727177982	15.393298002435
0	367	428.260173389414	10.760144916911
0	375	434.225039300134	3.642143826343
0	377	437.807520489264	6.345083764577
0	382	443.045557890131	3.324146939872
0	387	447.737877664762	0.330423099599
0	393	452.905535332079	0
0	406	457.61034908562	4.020960731963
0	414	467.122610555787	10.887584827503
0	419	475.814538292873	18.886608877266
0	421	476.088661362469	19.103070100612
0	423	478.411664246417	15.416741575987
0	425	482.226277443748	17.877103304627
0	427	486.323430027421	19.01838464027
0	433	495.769650144774	0
0	440	499.544930496147	3.536244415245
0	445	501.681631304868	3.822720299724
0	450	518.129810509316	17.6752449169
0	452	519.209070300517	6.660879217636
0	458	521.581799017469	0
0	465	524.628951442442	2.498335049702
0	467	527.905282843153	5.032282644672
0	473	531.881108610391	0
0	478	537.774378273696	0
0	483	552.205612521191	0
0	490	561.80760011537	3.739694678333
0	492	562.870036612412	1.64861280971
0	500	571.998797741496	9.01364230693
0	502	592.392460258022	28.554759234463
0	508	597.716217836624	0
0	512	605.594281885826	4.026527610153
0	517	611.897998355409	4.078829144017
0	522	614.216607534577	1.493104560644
0	528	620.317742763	0
0	533	633.087366258814	0
0	538	640.712641903378	0
0	543	644.277924496988	0
0	548	645.562145823386	0
0	558	661.939852356119	6.227520385727
0	560	664.915589315849	9.069330747368
0	562	678.766763192015	22.431169947592
0	567	683.419017135266	3.727882245257
0	572	689.453718146285	4.316174111072
0	578	696.376030506382	0
0	583	726.08112981539	0
0	588	748.256198482191	0
0	592	763.030320370332	10.295988401554
0	598	776.324169194211	0
0	603	782.533348317212	0
0	608	790.442602236572	0
0	613	796.841642534072	0
0	620	803.860844525222	4.679457072725
0	625	805.43916550842	1.710703453326
0	636	816.67417880947	12.6120784337
0	641	819.793262227615	6.412677884629
0	643	819.884556226857	6.304837370489
0	660	847.686790789059	32.713934275983
0	662	848.703066901673	30.891774082967
0	673	864.986429026899	44.362006593093
0	678	867.304990396437	36.946181615158
0	680	867.534605487215	34.363611003354
0	688	868.376068278022	33.990382472953
0	690	872.22536248203	27.360330689313
0	692	874.947382565536	21.485462407997
0	697	876.498612947518	22.721314703477
0	699	881.891802260591	23.513942428909
0	710	888.429935855669	21.438939054689
0	712	891.389302096356	23.159908146478
0	714	898.660981132323	30.286625150056
0	716	908.720067455377	32.343533244738
0	721	915.237617233988	32.899697865834
0	729	919.974641616862	36.770147982913
0	731	922.245223398132	35.05544502843
0	733	924.774642004258	14.493387418641
0	735	927.76243561141	11.684547144446
0	740	931.70333865974	12.028438944798
0	742	932.953068419483	1.716747358998
0	747	942.355688230556	5.493647077212
0	752	944.648172712239	0.049914062923
0	758	946.16650614259	0
0	763	960.554312054887	0
0	768	963.142455454312	0
0	772	966.25881251467	1.565837413819
0	778	975.528753666468	0
0	783	986.924993630692	0
0	787	987.699576100456	0.056749759381
0	793	989.277552434143	0
0	798	995.423087141936	0
0	803	999.343243437199	0
0	810	1006.074641259429	5.51969486036
0	815	1009.017924628131	4.497309340565
0	817	1009.707693256865	2.092000739898
0	823	1012.148330469352	0
0	836	1021.42620178902	6.583757135133
0	838	1030.382458475998	14.748595441205
0	840	1034.754506917726	18.566342895586
0	845	1035.865713433006	15.033365018475
0	865	1067.926295080405	33.127126249788
0	870	1071.023727492312	31.792731121395
0	875	1072.906942963603	30.799633129615
0	877	1084.827063040327	40.407857910401
0	891	1101.74758922466	44.580199490991
0	896	1117.520762668269	58.125416765886
0	898	1119.98319102522	53.547747522282
0	903	1124.841184854783	54.08086714959
0	905	1125.377460133931	53.320540110224
0	907	1126.193167178007	41.115846236496
0	909	1126.553085517698	34.801208462249
0	911	1134.035171310837	38.217125147213
0	919	1144.516784842297	45.756819244534
0	921	1153.131526071432	46.59421714225
0	923	1153.890590510604	30.260512245795
0	931	1161.674994750104	23.037404267008
0	933	1161.687980879893	19.75531671852
0	938	1167.490054390996	13.283226674467
0	946	1170.170025979199	11.292295403869
0	948	1174.978803537399	8.61757936057
0	950	1177.72351294718	9.657369782086
0	952	1179.475599244465	10.118175374118
0	957	1188.080069295384	5.173349038633
0	963	1199.867642890108	0
0	967	1201.592497634603	0.339139876893
0	973	1214.380027703044	0
0	978	1237.467451058074	0
0	985	1240.691774297158	2.788470652595
0	987	1241.378666665126	0.724401607492
0	1001	1251.497781095994	8.00759550651
0	1003	1254.019545313009	8.870897018185
0	1011	1261.368549043851	13.964163228188
0	1016	1263.802126317827	12.357756657232
0	1018	1267.093272923727	12.678625023196
0	1020	1267.481465356653	11.653191564565
0	1022	1268.275720642336	4.978013179815
0	1028	1272.574514846092	0
0	1032	1280.085723629496	7.127005551177
0	1037	1286.278917565286	1.428780063485
0	1043	1288.560154998562	0
0	1047	1290.850637568485	1.609385852054
0	1052	1292.669387265148	1.360048930576
0	1058	1298.544801123876	0
0	1068	1301.034449692692	2.004838408989
0	1073	1302.310807001993	2.391317770541
0	1075	1302.834681252069	1.945188516401
0	1077	1310.55630366774	9.136237678185
0	1083	1327.881064509466	0
0	1088	1339.852960572595	0
0	1093	1353.205468198065	0
0	1098	1357.167655047352	0
0	1102	1360.84233384341	3.511172846424
0	1108	1363.871062055183	0
0	1112	1368.419703333594	0.702319205245
0	1120	1377.722190013721	8.965466803759
0	1123	1379.713091336634	3.738732683948
1	11	13.314075551107	10.849055124527
1	19	26.293545472178	22.492123149698
1	30	35.299636203883	23.858179017302
1	32	41.019653195712	27.079928697058
1	34	49.546370345644	27.369009831958
1	42	57.09702484338	26.428474361333
1	47	64.344782302859	31.32018767763
1	58	79.304546083916	44.353282658963
1	66	83.062713114101	33.292966963632
1	74	87.907901746656	35.435695024788
1	76	95.249249367494	32.132229089893
1	78	95.744741190431	24.3104942828
1	80	96.787890890612	23.902277409587
1	82	103.140045833674	24.744460767937
1	93	109.574805296902	29.185969925164
1	107	135.306284335182	53.000260743784
1	112	138.880492608219	52.711068383058
1	120	141.728056680379	54.910282505469
1	125	143.786143702496	40.094944435968
1	127	147.552634979603	43.602965214796
1	132	151.015565719351	42.633372588629
1	140	166.401356292861	56.106206662212
1	145	170.095514605967	52.263970297058
1	147	173.645824980743	40.57542171706
1	152	174.151805573245	39.035115860811
1	157	182.479263015417	46.452580395919
1	159	183.909475473251	44.803769084066
1	161	188.494467936903	47.277322036109
1	163	190.25194444142	46.780231467882
1	168	191.849668880357	42.804863639183
1	170	194.411678427194	32.337334140229
1	175	200.426095599765	36.170970007996
1	180	204.364348852635	34.626852068719
1	182	209.763208825034	36.08030753535
1	190	218.697590787151	39.947357197534
1	192	219.374967874187	27.985856714163
1	194	224.623621971119	28.604339193915
1	196	233.29487318293	31.172249383564
1	198	233.978924416224	23.217199051579
1	206	238.806166929671	22.778240219472
1	220	245.480241374763	10.316431512309
1	228	247.015752932632	11.343345351548
1	242	250.798498740547	11.537434745477
1	244	254.670999950162	12.543417224426
1	246	256.711431609212	12.744769605813
1	254	264.549451120986	20.32747738944
1	256	269.513391263176	22.836656604222
1	261	275.001820790783	28.307760240332
1	263	278.196386209608	30.47401236848
1	265	280.707290347261	30.737198160272
1	267	284.213798967646	34.127298853036
1	269	285.080771121392	34.904279390076
1	274	294.942160712353	33.260435839724
1	276	298.765138695756	34.806259019268
1	278	299.071310824805	26.847485202056
1	283	303.752666795722	18.236511824417
1	288	314.372728670308	14.907024761087
1	296	319.532506823787	5.821971442824
1	298	319.896676218597	2.613384687316
1	300	322.63556346943	3.275653096251
1	305	324.452139164244	1.094782484019
1	310	339.99645773205	4.86272717678
1	318	363.242744819705	7.608743275648
1	320	363.300780535375	7.396566418043
1	325	371.487729928859	1.319939148514
1	330	373.26150702707	0.106626337341
1	341	389.891839828159	12.132649941499
1	352	403.572007649901	19.326585744173
1	357	406.049785292518	18.012123728869
1	359	407.673480625552	16.003013522351
1	361	416.74827716947	24.483168470192
1	366	420.44727177982	20.947879946822
1	368	428.260173389414	23.206199612029
1	376	434.225039300134	16.725010827631
1	378	437.807520489264	7.224625015473
1	383	443.045557890131	11.583121165444
1	388	447.737877664762	8.016466714503
1	390	450.159873186727	2.752418621564
1	407	457.61034908562	4.704813753541
1	415	467.122610555787	13.53322220213
1	420	475.814538292873	19.579512564589
1	422	476.088661362469	19.160731946862
1	424	478.411664246417	21.42607298456
1	426	482.226277443748	19.231354773318
1	428	486.323430027421	21.9742558883
1	430	494.047842267804	26.742796880653
1	441	499.544930496147	3.775280351373
1	446	501.681631304868	5.672945223966
1	451	518.129810509316	20.270899504172
1	453	519.209070300517	18.754504708101
1	455	519.909669526978	7.361478444097
1	466	524.628951442442	3.047152424973
1	468	527.905282843153	5.774666450413
1	470	531.428679122472	8.555678923991
1	475	533.830525480058	1.949416869667
1	480	542.041358878352	4.266980604656
1	491	561.80760011537	9.601987594179
1	493	562.870036612412	4.802131175375
1	501	571.998797741496	10.777373938794
1	503	592.392460258022	29.407304823456
1	505	594.688953213188	30.851252189629
1	513	605.594281885826	7.878064049202
1	518	611.897998355409	10.330244079736
1	523	614.216607534577	6.397438323185
1	525	620.263234970553	7.53973199662
1	530	623.76246991034	3.44472714734
1	535	633.777765860126	0.690399601312
1	540	640.72971187596	0.017069972582
1	545	645.185614202733	0.907689705745
1	559	661.939852356119	16.377706532733
1	561	664.915589315849	9.203257345457
1	563	678.766763192015	22.920504623534
1	568	683.419017135266	27.083423890843
1	573	689.453718146285	9.762583256276
1	575	690.319032101391	5.181488066178
1	580	699.119506921851	2.743476415469
1	585	747.797061145897	21.715931330507
1	593	763.030320370332	14.774121888141
1	595	766.209776333442	13.475444364664
1	600	778.811447767134	2.487278572923
1	605	787.892140837378	5.358792520166
1	610	793.968141628806	3.525539392234
1	621	803.860844525222	7.01920199115
1	626	805.43916550842	6.257778055923
1	637	816.67417880947	12.945716754376
1	642	819.793262227615	15.731161851845
1	644	819.884556226857	6.503971883871
1	661	847.686790789059	34.107071932691
1	663	848.703066901673	33.730210388597
1	674	864.986429026899	47.175136208193
1	679	867.304990396437	46.680567962631
1	681	867.534605487215	37.175796705936
1	689	868.376068278022	35.205073794161
1	691	872.22536248203	37.839676676961
1	693	874.947382565536	30.082350772819
1	698	876.498612947518	23.036692789979
1	700	881.891802260591	28.11450401655
1	711	888.429935855669	30.052076023987
1	713	891.389302096356	24.398305295376
1	715	898.660981132323	30.431587182445
1	717	908.720067455377	40.34571147311
1	722	915.237617233988	38.861083023349
1	730	919.974641616862	37.636722248708
1	732	922.245223398132	39.040729764183
1	734	924.774642004258	37.584863634556
1	736	927.76243561141	17.481181025793
1	741	931.70333865974	15.625450192776
1	743	932.953068419483	13.278168704541
1	748	942.355688230556	11.119367170071
1	753	944.648172712239	7.786131558895
1	755	945.08955518988	0.491296540564
1	760	950.076518449895	3.910012307305
1	765	962.85874840202	2.304436347133
1	773	966.25881251467	3.116357060358
1	775	967.358329803802	2.665354702951
1	780	976.345988761384	0.817235094916
1	788	987.699576100456	0.774582469764
1	790	989.139004772112	1.496178431037
1	795	993.34782861248	4.070276178337
1	800	998.637869792533	3.214782650597
1	811	1006.074641259429	6.73139782223
1	816	1009.017924628131	8.462978229062
1	818	1009.707693256865	5.187077969299
1	820	1010.707041648493	3.091349131526
1	837	1021.42620178902	9.277871319668
1	839	1030.382458475998	15.540013822111
1	841	1034.754506917726	19.120643882933
1	846	1035.865713433006	19.677549410866
1	866	1067.926295080405	47.093946665874
1	871	1071.023727492312	36.224558661695
1	876	1072.906942963603	33.675946592686
1	878	1084.827063040327	42.719753206339
1	892	1101.74758922466	57.328384094734
1	897	1117.520762668269	60.3533729346
1	899	1119.98319102522	60.587845122837
1	904	1124.841184854783	58.405741351845
1	906	1125.377460133931	54.617142428738
1	908	1126.193167178007	54.1362471543
1	910	1126.553085517698	41.475764576187
1	912	1134.035171310837	42.283294255388
1	920	1144.516784842297	48.698738678673
1	922	1153.131526071432	54.371560473669
1	924	1153.890590510604	47.353281581422
1	932	1161.674994750104	38.044916485295
1	934	1161.687980879893	23.050390396797
1	939	1167.490054390996	25.557390229623
1	947	1170.170025979199	15.96319826267
1	949	1174.978803537399	16.101072962069
1	951	1177.72351294718	11.362288770351
1	953	1179.475599244465	11.409456079371
1	958	1188.080069295384	18.722645425037
1	960	1197.882582584536	14.975862327785
1	968	1201.592497634603	1.724854744495
1	970	1201.908320103781	0.654962346071
1	975	1218.1189860318	3.738958328756
1	986	1240.691774297158	3.224323239084
1	988	1241.378666665126	3.475363020563
1	1002	1251.497781095994	10.84351603836
1	1004	1254.019545313009	10.529359723525
1	1012	1261.368549043851	16.219900749027
1	1017	1263.802126317827	16.397740502164
1	1019	1267.093272923727	15.648903263132
1	1021	1267.481465356653	13.066817456122
1	1023	1268.275720642336	12.447446850248
1	1025	1270.503151363966	7.205443901445
1	1033	1280.085723629496	7.511208783404
1	1038	1286.278917565286	13.320199486967
1	1040	1288.388373954981	3.53823645318
1	1048	1290.850637568485	2.290482569923
1	1053	1292.669387265148	3.428135548717
1	1055	1297.944968722672	6.6356303881
1	1069	1301.034449692692	2.489648568816
1	1074	1302.310807001993	3.28119571829
1	1076	1302.834681252069	2.915192020617
1	1078	1310.55630366774	9.666810932072
1	1080	1317.932376243749	16.512310254194
1	1085	1339.153997099168	11.272932589702
1	1090	1343.363062862829	3.510102290234
1	1095	1354.483770163338	1.278301965273
1	1103	1360.84233384341	3.674678796058
1	1105	1360.939804812607	3.608643815621
1	1113	1368.419703333594	4.548641278411
1	1121	1377.722190013721	10.004805885372
1	1124	1379.713091336634	10.956368126672
1	1126	1381.762988507211	5.788629854525
