version 2
run Testbench_1-624-20170516-19:19:18-52000
attr configname Testbench_1
attr datetime 20170516-19:19:18
attr experiment Testbench_1
attr inifile omnetpp.ini
attr iterationvars $0=175
attr iterationvars2 "$0=175, $repetition=24"
attr measurement $0=175
attr network Toll_road
attr processid 52000
attr repetition 24
attr replication #24
attr resultdir results
attr runnumber 624
attr seedset 624
param **.numBooths 3
param **.queue[*].serviceTime exponential(5.11s)
param **.source.interArrivalTime exponential(5.854s)
param **.source.numJobs 1000

vector 0  Toll_road.queue[0]  jobsProcessed:vector  ETV
attr interpolationmode  none
attr source  queueingTime
attr title  "jobs processed, vector"
vector 1  Toll_road.sink  lifeTime:vector  ETV
attr interpolationmode  none
attr title  "lifetime of arrived jobs, vector"
attr unit  s
0	3	0.651097318095	0
0	16	5.851764116657	5.116229299821
0	18	5.960440145425	4.00562106135
0	20	8.171333386313	4.008485113908
0	25	11.367828779846	6.548252524294
0	36	17.723366160631	9.389468365883
0	41	20.221201734567	6.133466720483
0	43	33.664867230435	19.533324626019
0	45	35.635656598708	20.824275243906
0	50	38.830388861537	20.248059531594
0	55	43.308176930532	5.748842630782
0	57	48.130067904491	8.283539503397
0	71	60.691830239163	9.794227680704
0	73	62.357552834082	7.338130559217
0	75	63.053954009412	7.481404889896
0	77	63.2174533051	3.725766947513
0	83	73.389259523211	0
0	87	78.239942811949	0.936139104068
0	92	83.07495557387	2.718593426485
0	97	93.474828913622	4.866495024211
0	102	95.526139062863	0.558714830586
0	108	109.479790562121	0
0	113	127.577113807203	0
0	117	128.935147371882	0.980934152101
0	122	134.865590810854	1.082534504305
0	128	145.502100674818	0
0	133	145.897505461641	0
0	137	151.93674115127	1.537026662178
0	143	154.058713520501	0
0	150	165.65755705972	8.636775570123
0	155	172.348166133911	12.04509098216
0	157	172.492486778718	1.545288067344
0	163	184.288407759247	0
0	173	199.899043846853	11.879223223977
0	178	206.498394023975	17.201099391749
0	180	212.149535597133	20.188644535589
0	185	214.553285354451	8.759773006675
0	190	218.463686047984	4.908588913264
0	198	225.725935912691	8.769230669137
0	200	226.827556964122	7.911133735142
0	202	237.563206918748	13.110137188423
0	208	240.857763897099	0
0	213	250.212291197657	0
0	218	253.283706721233	0
0	223	262.286112178882	0
0	228	269.973108127678	0
0	233	275.369678614693	0
0	237	281.40080051875	5.050980901208
0	243	285.825808428202	0
0	248	289.659979467807	0
0	252	298.829524774069	6.716497967004
0	258	308.615645296996	0
0	262	316.169522616308	4.609841106037
0	267	319.868710656786	2.36286351869
0	273	326.605849059529	0
0	278	335.49008407694	0
0	283	349.910296827834	0
0	288	352.15624329554	0
0	295	355.939492565696	2.278523860004
0	300	364.393962452471	10.251684471343
0	302	368.293607368691	11.239882394459
0	310	373.003557348654	1.454292894126
0	315	376.892383047706	4.468583616205
0	326	397.695379391303	23.691132403314
0	328	405.417901215766	28.263964114801
0	336	424.282395310193	44.619092333545
0	338	428.94171291561	40.309355242051
0	343	433.47193339001	17.019392810062
0	351	437.067799016878	16.567072425192
0	359	443.675282836579	10.598737748423
0	361	446.725266648282	12.946936403925
0	363	448.148050011192	13.683052054788
0	365	452.138594138085	13.442381711943
0	376	463.920734692336	24.602003417338
0	384	466.819309861734	14.41185579517
0	389	473.380515902252	15.795434629501
0	391	473.599651587974	9.70994769165
0	393	476.578607092025	10.563144301076
0	395	477.099624790941	10.33135296571
0	400	484.443877738985	13.971084922822
0	408	491.482891668969	10.973353001696
0	419	508.951026978565	22.019285732893
0	421	508.972517157331	21.309695891846
0	426	518.250195863907	24.993168937065
0	428	525.891773043216	23.792811056473
0	433	534.361800959967	26.968898046947
0	438	539.647870341867	28.17390103957
0	446	552.826109345184	18.723973086106
0	448	555.01470258216	20.455949665204
0	459	562.758495011168	22.164960870727
0	464	563.384631313772	12.167542105899
0	469	581.851582143223	23.462350569819
0	477	584.888598677903	23.909728646481
0	482	590.685429280159	29.334354464253
0	484	591.534042605138	28.735490143214
0	486	592.81796331843	19.48844639588
0	491	593.820717027049	11.707063706713
0	499	597.479683366968	12.803994864425
0	507	607.971294659901	17.34531143148
0	515	617.512704676016	24.641146668269
0	517	623.164799606893	28.406820886615
0	519	627.61282769551	31.537265687377
0	521	639.493300680518	39.79263009564
0	523	642.91325991992	36.643910248676
0	525	645.025407481307	34.982804604411
0	527	653.605302424783	36.959779920584
0	533	659.9862606661	0
0	543	666.029409719803	4.100698186499
0	548	671.367721480841	7.766516242194
0	550	671.545324326217	6.281244526674
0	555	677.370861553326	8.786850612365
0	557	677.736909517582	0.776954094754
0	563	692.692592430272	0
0	568	713.735246659468	0
0	573	719.458357836188	0
0	578	728.572349397368	0
0	583	741.473193485393	0
0	587	748.512335456075	0.447741069726
0	593	752.822679933295	0
0	598	758.467841570687	0
0	602	758.71555727384	0.178908095738
0	607	762.939440295216	2.54380485805
0	612	763.687969068601	0.642937191987
0	617	769.61914783998	2.837409883433
0	622	779.968681049294	7.727162235495
0	628	781.358161250023	0
0	632	783.225858371171	0.523770412034
0	638	791.980511506765	0
0	643	806.59167953773	0
0	647	810.158965645398	2.460642513605
0	652	816.152701841518	1.599002608086
0	658	824.758158905384	0
0	663	827.680693054172	0
0	668	842.282510226097	0
0	673	844.224296259915	0
0	678	848.544307201711	0
0	683	871.892649799271	0
0	688	884.360491767074	0
0	693	898.354621514137	0
0	697	906.834188143442	2.078623230045
0	703	914.568438847629	0
0	713	922.919998525617	7.075132290811
0	718	933.41240548497	16.359156573548
0	726	935.870909781326	16.691313336564
0	737	945.797457658676	22.164317529166
0	742	950.331222101725	15.707808318113
0	744	950.810337479993	15.243809848912
0	746	952.071583415924	16.145003527972
0	751	960.301891952886	18.496391882097
0	756	971.033438492424	28.123622816937
0	758	971.30932600946	22.00222230884
0	760	973.458121740637	17.257922619861
0	762	976.998327894795	9.204651146868
0	770	980.329255281426	1.462719668377
0	772	987.003899873883	8.054346607365
0	778	993.404067657848	0
0	783	999.655440914968	0
0	790	1008.831690384931	6.60887493672
0	792	1009.644583620308	4.861903345481
0	797	1014.487576272006	0.024525298671
0	803	1020.446171761745	0
0	807	1024.165285994842	3.04941448118
0	815	1032.864275516065	8.425151844019
0	817	1038.229764072138	12.577298720088
0	823	1043.51271387344	0
0	828	1055.058564251086	0
0	833	1059.826605318668	0
0	838	1070.073079021294	0
0	843	1081.959284455223	0
0	847	1087.971599578219	3.400095055946
0	853	1089.059219189244	0
0	858	1101.761366076256	0
0	863	1104.839892053904	0
0	868	1107.758759282402	0
0	873	1111.596943448373	0
1	17	5.851764116657	5.200666798562
1	19	5.960440145425	5.224905328589
1	21	8.171333386313	6.216514302238
1	26	11.367828779846	7.204980507441
1	37	17.723366160631	12.903789905079
1	42	20.221201734567	11.887303939819
1	44	33.664867230435	19.577132216351
1	46	35.635656598708	21.504113994292
1	51	38.830388861537	24.019007506735
1	56	43.308176930532	24.725847600589
1	58	48.130067904491	10.570733604741
1	72	60.691830239163	20.845301838069
1	74	62.357552834082	11.459950275623
1	76	63.053954009412	8.034531734547
1	78	63.2174533051	7.644904185584
1	80	68.755115047706	9.263428690119
1	88	78.239942811949	4.850683288738
1	93	83.07495557387	5.771151865989
1	98	93.474828913622	13.118466766237
1	103	95.526139062863	6.917805173452
1	105	97.916895754772	2.949471522495
1	110	110.621671440935	1.141880878814
1	118	128.935147371882	1.358033564679
1	123	134.865590810854	6.911377591073
1	125	144.743965642957	10.960909336408
1	130	145.724186381827	0.222085707009
1	138	151.93674115127	6.039235689629
1	140	152.908723099285	2.509008610193
1	151	165.65755705972	11.598843539219
1	156	172.348166133911	15.327384644314
1	158	172.492486778718	12.189411626967
1	160	173.691659408059	2.744460696685
1	174	199.899043846853	15.610636087606
1	179	206.498394023975	18.478573401099
1	181	212.149535597133	22.852240964907
1	186	214.553285354451	22.592394292907
1	191	218.463686047984	12.670173700208
1	199	225.725935912691	12.170838777971
1	201	226.827556964122	9.870851720568
1	203	237.563206918748	18.646783689768
1	205	237.576795667082	13.123725936757
1	210	241.416648882581	0.558884985482
1	215	251.856340484177	1.64404928652
1	220	255.540903117693	2.25719639646
1	225	263.817162066227	1.531049887345
1	230	272.620758242919	2.647650115241
1	238	281.40080051875	6.031121904057
1	240	281.454210590968	5.104390973426
1	245	287.968056323216	2.142247895014
1	253	298.829524774069	9.169545306262
1	255	303.053653532313	10.940626725248
1	263	316.169522616308	7.553877319312
1	268	319.868710656786	8.309029146515
1	270	324.304415708167	6.798568570071
1	275	327.722289638815	1.116440579286
1	280	343.202395655783	7.712311578843
1	285	351.39238824694	1.482091419106
1	296	355.939492565696	3.783249270156
1	301	364.393962452471	10.732993746779
1	303	368.293607368691	14.151329387563
1	311	373.003557348654	15.949832374422
1	316	376.892383047706	5.343118593178
1	327	397.695379391303	25.271579959802
1	329	405.417901215766	31.413654227777
1	337	424.282395310193	47.128458209228
1	339	428.94171291561	49.278409938962
1	344	433.47193339001	44.839575716451
1	352	437.067799016878	20.61525843693
1	360	443.675282836579	23.174556244893
1	362	446.725266648282	13.648721560126
1	364	448.148050011192	14.369719766835
1	366	452.138594138085	17.673596181681
1	377	463.920734692336	25.224522266194
1	385	466.819309861734	27.500578586736
1	390	473.380515902252	20.973061835688
1	392	473.599651587974	16.014570315223
1	394	476.578607092025	12.688903195701
1	396	477.099624790941	11.084161999992
1	401	484.443877738985	17.675605913754
1	409	491.482891668969	21.010098852806
1	420	508.951026978565	28.441488311292
1	422	508.972517157331	22.040775911659
1	427	518.250195863907	30.587374598422
1	429	525.891773043216	32.634746116374
1	434	534.361800959967	32.262838973224
1	439	539.647870341867	32.254967428847
1	447	552.826109345184	41.352140042887
1	449	555.01470258216	20.912566323082
1	460	562.758495011168	28.199742094212
1	465	563.384631313772	22.791097173331
1	470	581.851582143223	30.63449293535
1	478	584.888598677903	26.499367104499
1	483	590.685429280159	29.706559248737
1	485	591.534042605138	30.182967789232
1	487	592.81796331843	30.019410856506
1	492	593.820717027049	20.491200104499
1	500	597.479683366968	15.366030046632
1	508	607.971294659901	23.295606157358
1	516	617.512704676016	26.886721447595
1	518	623.164799606893	30.293241599146
1	520	627.61282769551	32.854848975232
1	522	639.493300680518	43.417738672385
1	524	642.91325991992	43.212589335042
1	526	645.025407481307	38.756057810063
1	528	653.605302424783	43.562699547887
1	530	655.39843911857	38.752916614371
1	544	666.029409719803	6.043149053703
1	549	671.367721480841	9.439009947537
1	551	671.545324326217	7.94411908757
1	556	677.370861553326	12.106781753783
1	558	677.736909517582	9.152898576621
1	560	681.770560507523	4.810605084695
1	565	697.846942332332	5.15434990206
1	570	717.814181530332	4.078934870864
1	575	726.45612228408	6.997764447892
1	580	730.751303575522	2.178954178154
1	588	748.512335456075	7.039141970682
1	590	749.07648453969	1.011890153341
1	595	758.163161488877	5.340481555582
1	603	758.71555727384	0.247715703153
1	608	762.939440295216	4.402791117114
1	613	763.687969068601	3.292333631435
1	618	769.61914783998	6.574115963366
1	623	779.968681049294	13.186943092747
1	625	780.805656026359	8.56413721256
1	633	783.225858371171	1.867697121148
1	635	787.709560584671	5.007472625534
1	640	793.109998067539	1.129486560774
1	648	810.158965645398	3.567286107668
1	653	816.152701841518	8.454378709725
1	655	816.189555885064	1.635856651632
1	660	825.246087707103	0.487928801719
1	665	830.097309815875	2.416616761703
1	670	843.491299465098	1.208789239001
1	675	844.434318266554	0.210022006639
1	680	862.937230417052	14.392923215341
1	685	873.108503188394	1.215853389123
1	690	885.34008989532	0.979598128246
1	698	906.834188143442	8.479566629305
1	700	907.792900336259	3.037335422862
1	714	922.919998525617	8.351559677988
1	719	933.41240548497	17.567539250164
1	727	935.870909781326	18.817660869904
1	738	945.797457658676	26.617861213914
1	743	950.331222101725	26.698081972215
1	745	950.810337479993	16.186923696381
1	747	952.071583415924	16.505055784843
1	752	960.301891952886	24.375312064934
1	757	971.033438492424	29.227938421635
1	759	971.30932600946	28.399510333973
1	761	973.458121740637	24.151018040017
1	763	976.998327894795	20.798128774019
1	771	980.329255281426	12.535578533499
1	773	987.003899873883	8.137364260834
1	775	987.038375190782	8.088821924264
1	780	993.450123990468	0.04605633262
1	791	1008.831690384931	9.176249469963
1	793	1009.644583620308	7.421768172097
1	798	1014.487576272006	9.704895997179
1	800	1014.67862638458	0.215575411245
1	808	1024.165285994842	3.719114233097
1	816	1032.864275516065	11.748404002403
1	818	1038.229764072138	13.790640400092
1	820	1041.370970424045	15.718505071995
1	825	1043.653133469175	0.140419595735
1	830	1056.425896150727	1.367331899641
1	835	1064.746416414042	4.919811095374
1	840	1070.295073264102	0.221994242808
1	848	1087.971599578219	6.012315122996
1	850	1088.265991143771	3.694486621498
1	855	1094.773932353465	5.714713164221
1	860	1103.303133775073	1.541767698817
1	865	1106.025737331824	1.18584527792
1	870	1110.321997358838	2.563238076436
1	876	1128.893614807728	17.296671359355
