version 2
run Testbench_1-4-20170504-11:50:09-73204
attr configname Testbench_1
attr datetime 20170504-11:50:09
attr experiment Testbench_1
attr inifile omnetpp.ini
attr iterationvars ""
attr iterationvars2 $repetition=4
attr measurement ""
attr network Toll_road
attr processid 73204
attr repetition 4
attr replication #4
attr resultdir results
attr runnumber 4
attr seedset 4
param **.numBooths 3
param **.queue[*].serviceTime exponential(5.11s)
param **.source.interArrivalTime exponential(5.854s)
param **.source.numJobs 1000

vector 1  Toll_road.queue[1]  jobsProcessed:vector  ETV
attr interpolationmode  none
attr source  queueingTime
attr title  "jobs processed, vector"
vector 0  Toll_road.queue[0]  jobsProcessed:vector  ETV
attr interpolationmode  none
attr source  queueingTime
attr title  "jobs processed, vector"
vector 3  Toll_road.sink  lifeTime:vector  ETV
attr interpolationmode  none
attr title  "lifetime of arrived jobs, vector"
attr unit  s
vector 2  Toll_road.queue[2]  jobsProcessed:vector  ETV
attr interpolationmode  none
attr source  queueingTime
attr title  "jobs processed, vector"
0	6	33.490566281873	0
0	36	86.223302317381	0
0	47	91.812997205544	0
0	76	124.952151270586	0
0	83	129.643894068534	4.235681301497
0	106	164.70401565459	0
0	121	172.799589058651	0
0	148	188.757087332442	0
0	152	193.768182618163	0.274630679581
0	157	195.144676010927	1.366818947571
0	168	200.508616620997	0
0	178	218.89192500383	0
0	196	242.086164970188	0
0	208	258.317932658246	0
0	246	288.769896803925	0
0	276	334.30021995927	0
0	308	367.494062625238	0
0	343	392.548523053945	0
0	348	400.891397870196	0
0	352	413.641359542027	4.507734228846
0	368	434.96691109359	0
0	373	456.171667893592	0
0	378	462.526797002945	0
0	388	480.855936172359	0
0	401	491.302927368448	0
0	433	529.626934620834	0
0	438	542.99561286595	0
0	448	573.525079292028	0
0	457	582.694725565635	6.198424325815
0	471	598.352227689134	0
0	498	668.148602006654	0
0	503	675.764399474139	0
0	510	685.673808382348	5.142082288257
0	523	701.612585555847	14.161519893026
0	525	702.256795462311	14.708430555429
0	530	702.761688942577	13.012484684873
0	532	703.869782321822	1.507956172107
0	554	719.33431347926	0
0	588	753.965273408078	0
0	612	784.799516627317	0
0	624	793.840187689689	0
0	645	809.598856235972	11.843180567932
0	647	813.25353247797	5.477913230026
0	676	851.438930311091	0
0	713	879.009856325349	0
0	723	887.955739838682	0
0	732	894.955123301147	4.987516446069
0	738	916.047841163632	0
0	750	926.676336819709	7.412794741097
0	752	929.15339939518	3.476716048689
0	758	938.529428519751	0
0	777	951.557799442875	0
0	796	974.101884560994	0
0	808	990.936510778753	0
0	841	1034.616842113465	0
0	858	1065.311589644771	0
0	874	1107.218298647359	0
0	882	1112.888104433938	0
0	886	1115.184482049139	1.334726261159
0	911	1141.894639198418	0
0	920	1146.222014281231	1.334350405963
0	941	1167.885226954261	0
0	968	1213.538944331871	0
0	973	1229.895492131179	0
0	984	1251.908146585181	0
0	994	1263.192688169442	0
0	1009	1271.845032792904	0
0	1036	1283.959818395688	0
0	1052	1312.318741863415	0
0	1057	1318.447827721902	0
0	1069	1339.235931418443	0
0	1086	1354.982972902844	0
0	1108	1373.446316506652	0
0	1113	1380.924956677261	0
0	1123	1402.89526590284	0
0	1131	1411.68324534265	0
0	1141	1430.282138146863	0
0	1163	1451.071891269669	0
0	1223	1523.530937028339	0
0	1233	1532.963604598426	0
0	1240	1538.409149090941	5.098179899699
0	1242	1539.746489793689	1.894152499653
0	1247	1548.172348408496	6.931247682252
0	1253	1552.105691529772	0
0	1258	1563.561990293764	0
0	1271	1574.985735550826	0
0	1278	1583.454770257979	0
0	1289	1589.034618099355	0
0	1293	1591.605782485591	2.302047965919
0	1306	1607.475499228534	0
0	1318	1617.639757155957	3.714201565642
0	1320	1618.297116491691	1.906934367948
0	1328	1625.491592621731	0
0	1346	1646.157309491005	0
0	1378	1695.251162207451	0
0	1386	1700.399174173571	0
0	1400	1708.612845543684	6.785814464252
0	1441	1756.385886239256	0
0	1448	1766.97129882004	0
0	1459	1779.879154119142	0
0	1470	1795.51636379849	10.153705869068
0	1494	1822.366125427506	0
0	1520	1853.319386092489	0
0	1526	1857.819516434334	3.973601356043
0	1537	1867.460663642105	0
0	1554	1876.909617519569	0
0	1559	1880.650923768066	0
0	1565	1883.358405344804	0.812588695907
0	1571	1884.237219376111	0
0	1581	1904.096784781483	0
0	1603	1933.134674836664	0
0	1607	1942.30526023937	2.074895727478
0	1623	1956.325505292334	0
0	1635	1965.843312331266	8.090708500308
0	1673	2012.443890381662	0
0	1683	2027.351957745309	0
0	1728	2101.135528977947	0
0	1735	2111.273367123319	9.211799563437
0	1748	2135.490104304801	0
0	1771	2166.495441201218	0
0	1804	2228.6017923196	0
0	1821	2246.707822206923	0
0	1832	2250.973292879066	0
0	1856	2269.384108332583	0
0	1918	2326.012580994678	0
0	1938	2334.970475059581	0
0	1951	2349.531848166872	0
0	1958	2354.62650145612	0
0	1976	2365.65073453692	0
0	1988	2374.592561181887	0
0	1996	2382.748681054615	0
0	2003	2403.691091313926	0
0	2018	2427.621535495804	0
0	2023	2430.015937017495	0
0	2039	2441.615229872256	0
0	2059	2457.376611630487	0
0	2081	2489.942973099076	0
0	2093	2495.44367188752	0
0	2098	2495.982328824749	0
0	2108	2528.959151263638	0
0	2118	2540.198369108896	0
0	2123	2555.405102211259	0
0	2148	2580.758291569607	0
0	2156	2587.350718951615	0
0	2198	2643.392338310432	0
0	2213	2659.35578275843	13.568568851409
0	2215	2661.257714201389	9.081162587026
0	2230	2692.048381885077	37.216767567325
0	2232	2694.999954135238	22.623501513508
0	2243	2700.173201090043	0.507088255782
0	2258	2715.552124059557	0
0	2266	2716.926961613888	0
0	2271	2720.069392665856	0
0	2288	2730.091455723666	0
0	2292	2731.60197393374	1.371721542524
0	2321	2766.88606775947	0
0	2333	2790.746051631904	0
0	2349	2811.281760678508	0
0	2358	2829.038548612881	0
0	2368	2843.93780033677	0
0	2383	2857.814566693269	0
0	2387	2863.495285658725	3.409761224747
0	2396	2866.511176289323	0
0	2434	2901.33374302823	0
0	2439	2908.757138629809	0
0	2473	2952.017523775996	0
0	2480	2956.650976837487	0.234829460832
0	2487	2958.184368471204	0.142970268106
0	2493	2971.402343498977	0
0	2518	3000.460473770084	0
0	2532	3026.700010059049	5.999825376286
0	2545	3041.524828445793	8.62849729031
0	2547	3043.565134169709	9.972384852637
0	2553	3049.65633853651	0
0	2568	3078.307960916606	0
0	2580	3084.923692365719	4.586732366452
0	2591	3114.576536131214	0
0	2606	3121.022415421075	0
0	2613	3126.167671675072	0
0	2631	3165.15406110293	0
0	2653	3198.992341953866	0
0	2663	3212.033823717176	0
0	2716	3264.752776522598	0
0	2728	3291.354477634531	0
0	2748	3312.876611804098	0
0	2758	3323.489230461731	0
0	2768	3333.081265739478	0
0	2791	3359.646515537105	0
0	2796	3361.312830797183	0
0	2803	3371.2892195002	0
0	2823	3389.312301762933	0
0	2843	3419.176191264598	0
0	2848	3423.09069073789	0
0	2861	3435.189839975846	6.313396565198
0	2878	3448.871219701171	0
0	2896	3471.42668316115	0
0	2903	3488.739550262017	0
0	2908	3505.545725596165	0
0	2924	3514.521335191593	0
0	2938	3543.044897908246	0
0	2948	3545.954814515244	0
0	2953	3573.858188229104	0
0	2961	3581.887626584382	0
0	2973	3589.00415505724	6.981860497281
0	2986	3604.62787443859	16.890761602201
0	2988	3609.045783564946	18.484434668348
0	2996	3620.526242506664	0
0	3008	3643.947309602988	0
0	3016	3657.970230934357	0
0	3024	3678.453326518692	0
0	3036	3687.916585896069	0
0	3044	3699.408739497026	0
0	3069	3724.706286979054	0
0	3078	3731.947054292885	0
0	3088	3747.601414452713	0
0	3092	3754.943348927337	0.687649792583
0	3114	3773.850804788649	0
0	3133	3794.138300123069	0
0	3140	3796.792099516914	2.282350335073
0	3145	3801.418236725551	2.158930020039
0	3163	3832.54241884039	0
0	3168	3850.709333272949	0
0	3178	3864.486402504622	0
0	3190	3871.101588086807	3.414458877027
0	3195	3872.742929837901	3.445680855776
0	3209	3889.097001059533	0
0	3218	3900.692848493133	0
0	3229	3921.040113672031	0
0	3250	3963.655488070907	36.27735662357
0	3252	3965.927680839207	8.404808724205
1	3	19.974739676506	0
1	18	50.148199056051	0
1	23	72.049201136839	0
1	41	88.849569889183	0
1	55	97.388560936931	5.628406109086
1	63	105.903542564107	11.229747010828
1	67	120.725056692305	20.006515904567
1	93	138.301397556653	0
1	98	153.476788342164	0
1	103	164.033697700331	0
1	124	175.554442219876	0
1	131	177.031738830883	0
1	138	182.068379548907	0
1	142	187.998478425044	1.842682822754
1	163	199.71901285799	0
1	183	229.271441132909	0
1	188	236.283811758683	0
1	213	258.805916501448	0
1	220	265.545930501952	3.65606285014
1	229	266.516513946857	0
1	235	271.095985881611	0.032721231414
1	263	316.84382101769	0
1	293	358.18910234649	0
1	303	365.724093848052	0
1	311	370.673154091107	0
1	323	381.372923040609	10.68261154073
1	325	384.795421550651	5.866480689604
1	361	426.539092647101	0
1	391	485.337222549051	0
1	404	491.340065266999	0
1	413	507.026857820719	0
1	423	517.920219912876	0
1	451	575.750779993297	0
1	468	595.920452869803	0
1	486	646.230535669001	0
1	493	658.501716746158	0
1	551	717.226506987938	0
1	568	737.582957237368	0
1	575	740.261714761919	1.479718247648
1	606	782.463666326565	0
1	620	792.634157115485	9.400641937534
1	628	796.673879802486	0.111872726286
1	637	802.414616293462	0
1	658	831.29532972627	0
1	665	847.024713312254	7.9218866065
1	688	861.156871004721	0
1	693	871.7357756513	0
1	698	873.279926349432	0
1	729	890.964154110862	0
1	761	939.604214868137	0
1	771	949.195579580694	0
1	782	960.428992793299	10.392060505709
1	793	973.167721501921	0
1	800	978.119736534179	0.617328951329
1	811	993.506574874898	0
1	818	1009.377907914301	0
1	825	1020.272490474551	9.092896254812
1	830	1029.448151051917	15.185392198754
1	832	1033.04149460914	6.521653204128
1	846	1037.88856818794	0
1	863	1085.008710030781	0
1	868	1098.942038695566	0
1	888	1115.599518336053	16.045905007333
1	890	1117.224830571675	9.302221079128
1	903	1123.888178405554	0
1	919	1144.895606531834	0
1	948	1182.03074122689	0
1	957	1187.507329994427	5.29198463701
1	978	1237.90180765582	0
1	985	1252.969797076122	4.031063370755
1	995	1265.197782074779	9.98092689744
1	1012	1273.822718962595	0
1	1024	1280.976430053293	5.161804337828
1	1032	1282.692918434136	0.75136366593
1	1066	1333.101993226996	0
1	1078	1343.493044878089	0
1	1082	1352.941531645608	9.189476425812
1	1093	1359.958819452195	0
1	1098	1364.939944477914	0
1	1103	1367.220565793054	0
1	1153	1441.221791529393	0
1	1158	1445.310766097493	0
1	1173	1471.076409797744	0
1	1181	1483.470886369564	0
1	1188	1500.048664999501	0
1	1214	1518.558567807976	0
1	1228	1530.59476685031	0
1	1261	1565.418706402021	0
1	1283	1584.654219399524	0
1	1300	1601.605624948057	16.44529575085
1	1317	1617.039061837832	0
1	1331	1627.988299204928	0
1	1338	1636.278991363489	0
1	1358	1673.775371218847	0
1	1371	1686.543493427035	0
1	1383	1698.056856443716	0
1	1394	1705.123290660702	0
1	1409	1713.247019011268	0
1	1421	1730.175237170554	0
1	1430	1748.368790448404	17.774796142263
1	1435	1754.28334430922	20.106437930646
1	1437	1755.381743519439	2.630574892071
1	1465	1786.351155918558	0
1	1499	1834.759563660963	0
1	1506	1844.164445433319	0
1	1524	1856.400146500592	11.899525540745
1	1543	1868.513173457295	18.747877255049
1	1545	1876.120550770627	11.471589549318
1	1550	1876.780599956911	8.927126382022
1	1578	1892.96740657662	0
1	1591	1914.754599818487	0
1	1629	1962.499456432058	0
1	1644	1970.378955872855	0
1	1649	1977.879346550999	0
1	1696	2057.23009388434	0
1	1713	2092.598474372789	0
1	1720	2099.851344529597	6.87189456819
1	1722	2100.489889344001	6.814560976667
1	1734	2106.144973279067	0
1	1741	2113.685228308719	0
1	1753	2152.660613888131	0
1	1761	2153.310925495649	0
1	1766	2160.994308677404	0
1	1793	2218.995998425531	0
1	1800	2226.902438949942	6.848996006715
1	1807	2232.694419643543	10.891671135053
1	1826	2249.753708717785	0
1	1853	2267.717415457196	0
1	1887	2287.219207501756	0
1	1898	2314.494307443604	0
1	1903	2318.832587319966	0
1	1924	2327.616221881642	0
1	1943	2342.20646299901	0
1	1948	2345.848466890424	0
1	1964	2356.525803296724	0
1	1983	2367.713833888466	0
1	2011	2413.777411410783	0
1	2026	2432.38896025495	0
1	2030	2439.069659911883	5.516645553717
1	2040	2445.314976089471	4.315514531453
1	2053	2455.390247158159	2.490015227687
1	2078	2482.292129648799	0
1	2103	2506.836011877306	0
1	2113	2538.147139665398	0
1	2128	2561.098363896179	0
1	2143	2572.93411066376	0
1	2159	2587.910747335004	0
1	2171	2597.280272784385	0
1	2183	2619.175534983577	0
1	2193	2628.328923247519	0
1	2201	2643.841218425585	0
1	2236	2696.061751383874	0
1	2247	2708.658340952076	12.367767721499
1	2261	2715.569982432307	0
1	2276	2720.785678398518	0
1	2296	2744.753282321278	0
1	2306	2752.868477638973	0
1	2324	2767.215420735558	0
1	2338	2803.390817552605	0
1	2378	2850.284401738231	0
1	2391	2864.692384947605	0
1	2406	2876.826577159909	0
1	2418	2888.616286554819	0
1	2430	2896.245460131526	2.427599962932
1	2445	2911.956235678853	16.403290474108
1	2447	2914.212774898698	2.906424764596
1	2458	2923.247288732232	0
1	2466	2936.289157044712	0
1	2476	2954.546860089708	0
1	2499	2974.281284475337	0
1	2505	2983.821436333244	2.777701647649
1	2513	2993.31929541765	0
1	2521	3013.318250387522	0
1	2525	3015.760815847666	0.852325400052
1	2542	3033.828728478004	0
1	2556	3050.644384439493	0
1	2563	3070.347001568225	0
1	2574	3081.362026866677	0
1	2588	3112.676430349801	0
1	2628	3158.150670680501	0
1	2643	3173.986383990776	0
1	2666	3213.590184692734	0
1	2673	3220.31325046391	0
1	2687	3231.279713362781	5.98458510781
1	2692	3236.017576778564	2.210081548926
1	2697	3238.604466279172	2.094634110011
1	2708	3254.883949111756	0
1	2723	3276.710068445706	0
1	2736	3296.335850947933	0
1	2741	3307.856613774759	0
1	2751	3313.868295483999	0
1	2806	3373.966264270003	0
1	2813	3377.566118491129	0
1	2831	3400.943173768863	0
1	2854	3429.874121634052	0
1	2871	3443.354126012004	0
1	2888	3462.741259411108	0
1	2911	3509.930151018736	0
1	2920	3512.072084716213	0.390659959284
1	2927	3516.533995644299	4.576995403728
1	2958	3579.381170912707	0
1	3003	3631.433070514857	0
1	3013	3656.802385016009	0
1	3053	3715.452482141423	0
1	3096	3755.134671295239	0
1	3100	3760.266585439058	3.403217223414
1	3110	3770.910881411488	8.565853472301
1	3115	3774.303367061363	8.002796501486
1	3123	3781.380268323836	0
1	3149	3801.627966942921	0
1	3194	3872.398503707769	0
1	3226	3920.662838528644	0
1	3244	3947.78466971275	0
1	3263	3973.076839575313	0
1	3273	3998.1538910291	0
2	13	44.819889231544	0
2	28	79.066512417856	0
2	33	84.933934994198	0
2	62	104.072654929823	0
2	71	121.491142852289	0
2	82	126.540472133421	0
2	113	166.224645613418	0
2	117	171.411474389037	0.836213825551
2	171	201.687832277465	0
2	193	239.321453273966	0
2	203	253.016733419797	0
2	216	260.454629166416	0
2	230	268.861349888562	2.738700520598
2	243	288.641952931812	0
2	251	290.91681363404	0
2	258	306.431555550388	0
2	268	326.570192930019	0
2	273	332.723234166446	0
2	281	336.954580794365	0
2	286	338.097837291872	0
2	296	361.10946417396	0
2	317	371.198723257087	0
2	331	386.9859385713	0
2	337	390.156740091963	3.147803472777
2	358	425.986086162519	0
2	383	467.114619829288	0
2	396	489.440757955269	0
2	416	509.015631939974	0
2	428	522.165533361473	0
2	441	546.080322090372	0
2	461	586.84932770773	0
2	478	633.205648932846	0
2	483	643.95065787955	0
2	509	684.409603166268	0
2	536	705.116414197468	0
2	545	713.078019229847	5.028163932375
2	547	715.617865978413	4.119929892652
2	563	729.531668516506	0
2	574	740.053486459673	0
2	582	751.15616222331	8.728002449787
2	593	774.834846855889	0
2	598	776.800707185692	0
2	602	779.353832022982	0.127568250262
2	619	789.647640118792	0
2	651	822.953511055279	0
2	664	842.457193722388	0
2	673	850.278271871016	0
2	681	856.116975831011	0
2	701	873.658152644412	0
2	708	876.490474409259	0
2	718	882.037523506972	0
2	744	919.819977851939	0
2	768	948.970341198069	0
2	786	963.284417623996	0
2	838	1034.420040688406	0
2	851	1048.847584334963	0
2	894	1117.818158558888	0
2	908	1141.202108439959	0
2	928	1149.434387930793	0
2	932	1155.710821894475	2.00644954774
2	938	1167.724391871655	0
2	954	1185.323152312799	0
2	963	1212.538500404015	0
2	1001	1267.386543196289	0
2	1044	1292.735157240243	24.035139273117
2	1046	1303.198167034276	24.060263792177
2	1048	1303.523214044511	23.911375075233
2	1058	1320.731884470782	39.137505063986
2	1060	1321.352314399664	35.680140057068
2	1118	1387.87728129656	0
2	1128	1408.878778859505	0
2	1137	1427.881839074516	4.146791883468
2	1147	1433.522968373293	2.741797724987
2	1166	1457.77772284169	0
2	1176	1477.996015074113	0
2	1193	1509.102978666832	0
2	1197	1509.461785770879	0.288600350901
2	1203	1509.915836355566	0
2	1208	1513.687089203479	0
2	1215	1519.197676588343	4.906568739827
2	1268	1573.248047338326	0
2	1299	1597.361359739146	0
2	1343	1645.023968586138	0
2	1353	1660.987499024471	0
2	1363	1678.986887278454	0
2	1368	1686.359407412861	0
2	1397	1707.990148139579	0
2	1412	1720.298195936521	9.13966923956
2	1418	1726.323486929157	0
2	1451	1773.496218668273	0
2	1466	1787.079148520725	12.873844212007
2	1478	1799.296959206128	0
2	1483	1801.540174762486	0
2	1487	1803.596648445629	0.542255403584
2	1500	1838.206124504737	24.223327540319
2	1514	1846.163627344558	0
2	1549	1876.51618582001	0
2	1588	1914.335450391917	0
2	1597	1923.533494988624	4.821439964526
2	1613	1950.195999956937	0
2	1618	1956.064650292282	0
2	1634	1963.436985229129	0
2	1641	1969.095838115802	0
2	1655	1979.074252224558	0.388403034647
2	1663	2001.11504815843	0
2	1668	2006.228627402657	0
2	1676	2014.78869360351	0
2	1686	2027.533717591947	0
2	1693	2054.89698950296	0
2	1701	2060.990620279387	0
2	1707	2083.147922133795	12.303126625487
2	1756	2152.838320109407	0
2	1775	2172.340834756151	0.334400344482
2	1781	2174.061642576469	0
2	1788	2195.215907390367	0
2	1813	2237.223381433997	0
2	1818	2245.2298938217	0
2	1837	2253.399442654091	2.95451262239
2	1845	2259.545519771499	3.537415041182
2	1847	2259.88348085253	1.965919837623
2	1861	2270.666060224265	0
2	1870	2274.693603897427	3.682781791339
2	1872	2278.682274775506	4.980770017735
2	1878	2281.146231628895	0
2	1890	2289.485885015701	7.519887606961
2	1892	2296.812843902488	11.717398684916
2	1906	2319.812677126795	0
2	1910	2320.497865074728	0.599131270959
2	1921	2327.518803977101	0
2	1928	2329.151052224305	0.70364251887
2	1961	2354.989885030847	0
2	1971	2363.0594877315	0
2	1991	2375.720026114041	0
2	2006	2412.600349829582	0
2	2046	2447.079576466537	0
2	2055	2457.084326941967	6.069180716311
2	2068	2472.819481605341	0
2	2073	2476.733350114816	0
2	2086	2490.331197466623	0
2	2133	2565.571361524474	0
2	2137	2570.599049670247	3.137774566452
2	2151	2585.454773320102	0
2	2168	2596.286936973028	0
2	2177	2606.792582536215	1.570143459377
2	2188	2623.868892711837	0
2	2219	2671.751160105456	0
2	2227	2674.22837485915	0
2	2251	2712.82042805969	0
2	2281	2724.685727801347	0
2	2303	2751.548800916865	0
2	2312	2759.056294631442	1.032394448405
2	2317	2763.944184308171	2.770409389973
2	2341	2803.534813819468	0
2	2352	2814.482133786534	8.00695642892
2	2361	2836.905453534516	0
2	2371	2845.028743225756	0
2	2403	2876.596147184167	0
2	2413	2886.365547821874	0
2	2421	2891.714546717545	0
2	2451	2914.366341753325	0
2	2463	2931.635891011227	0
2	2496	2974.202683349489	0
2	2577	3083.592590460188	0
2	2598	3116.118339292269	0
2	2603	3120.445544118963	0
2	2618	3147.616781354399	0
2	2623	3152.023810642529	0
2	2638	3171.327801075462	0
2	2648	3182.264841053265	0
2	2658	3207.603926298994	0
2	2676	3223.794842038095	0
2	2684	3229.52679795529	0
2	2703	3249.046412114006	0
2	2713	3264.068156696156	0
2	2731	3291.416592825613	0
2	2761	3329.240996264258	0
2	2773	3335.20866753816	0
2	2778	3339.487001340222	0
2	2785	3359.003714142021	16.862363553618
2	2787	3359.392964854263	10.160778336875
2	2816	3382.795056151669	0
2	2828	3390.437640688396	0
2	2838	3406.726967247011	0
2	2857	3434.483929709911	0
2	2867	3440.341185447816	5.589437840937
2	2883	3454.855037483622	0
2	2893	3471.040114890589	0
2	2933	3531.389719798975	0
2	2941	3543.44002401728	0
2	2967	3586.318947879209	0
2	2982	3596.202307160871	0
2	2992	3613.140078044058	10.341634006282
2	3021	3677.682016122203	0
2	3032	3684.689441693776	5.142149651814
2	3047	3709.238432248513	12.483064609553
2	3056	3715.508994227136	0
2	3061	3719.013550656887	0
2	3066	3719.898763428315	0
2	3081	3731.947070610631	0
2	3128	3792.743262885979	0
2	3139	3794.925566160918	0
2	3158	3815.998260295913	0
2	3173	3862.932190596809	0
2	3181	3865.02450739389	0
2	3201	3877.148891886974	0
2	3210	3892.212768267774	9.009017028353
2	3223	3907.686064628022	0
2	3238	3929.815958062702	7.177924138084
2	3258	3969.310581248668	0
2	3268	3992.968057706264	0
3	8	38.372250299404	18.397510622898
3	10	39.604327321604	6.113761039731
3	15	45.599301523265	0.779412291721
3	20	50.180135258249	0.031936202198
3	25	74.964766015641	2.915564878802
3	30	79.092943914536	0.02643149668
3	38	87.137675395999	0.914373078618
3	49	92.043789333699	0.230792128155
3	54	95.091209624217	10.157274630019
3	56	97.388560936931	8.538991047748
3	64	105.903542564107	14.143387736262
3	66	111.958458643471	7.885803713648
3	68	120.725056692305	26.051261139026
3	73	124.466335570192	2.975192717903
3	84	129.643894068534	4.691742797948
3	86	131.006768867485	30.288228079747
3	88	132.326637340368	6.918424573331
3	90	136.018903604922	9.478431471501
3	95	152.475182066778	14.173784510125
3	100	155.022152377876	1.545364035712
3	108	164.91384731763	0.880149617299
3	110	165.916198742549	1.212183087959
3	118	171.411474389037	5.186828775619
3	126	176.562136209533	1.007693989657
3	128	176.773220889934	6.197960326448
3	133	177.796878120472	4.997289061821
3	135	179.246214449499	2.214475618616
3	143	187.998478425044	5.930098876137
3	145	188.442191088037	2.286395485747
3	153	193.768182618163	5.011095285721
3	158	195.144676010927	1.651124072345
3	160	196.230593504594	2.452736441238
3	165	200.121300071869	0.402287213879
3	173	203.626158082865	1.9383258054
3	175	213.31283654153	12.804219920533
3	180	221.647157659488	2.755232655658
3	185	231.523091362674	2.251650229765
3	190	238.339217777864	2.055406019181
3	198	248.221138885559	6.134973915371
3	200	248.905277619631	9.583824345665
3	205	253.468771477521	0.452038057724
3	210	258.551333136949	0.233400478703
3	221	265.545930501952	6.740014000504
3	223	265.885277446442	3.99540979463
3	231	268.861349888562	8.406720722146
3	236	271.095985881611	4.579471934754
3	238	273.733106933391	7.610457565427
3	240	278.556460812969	7.493196162772
3	248	289.236396558379	0.594443626567
3	253	292.463878048876	3.693981244951
3	255	300.401089894951	9.484276260911
3	260	314.328063309631	7.896507759243
3	265	320.491580306825	3.647759289135
3	270	332.188106007914	5.617913077895
3	278	336.079165343466	3.35593117702
3	283	338.02522278766	1.070641993295
3	288	340.073201069718	1.975363777846
3	290	344.562311920193	10.262091960923
3	298	363.119087227486	4.929984880996
3	300	363.479445631385	2.369981457425
3	305	366.334015289848	0.609921441796
3	319	377.000282967364	5.801559710277
3	324	381.372923040609	10.699768949502
3	326	384.795421550651	14.105110050772
3	328	386.97672502369	8.047784162643
3	336	387.387384150047	19.893321524809
3	338	390.156740091963	3.170801520663
3	340	392.043956082521	5.035019463335
3	345	400.632216805564	8.083693751619
3	353	413.641359542027	12.749961671831
3	355	414.616827620987	5.483202307806
3	363	426.731014615381	0.19192196828
3	365	430.198379513536	4.212293351017
3	370	435.175996541129	0.209085447539
3	375	460.647891663428	4.476223769836
3	380	462.702911939521	0.176114936576
3	385	467.200769210532	0.086149381244
3	393	486.468185480839	5.61224930848
3	398	490.21238274276	4.875160193709
3	406	491.837504203122	0.534576834674
3	408	494.584888425654	5.144130470385
3	410	505.378332526257	14.038267259258
3	418	509.719905072577	2.693047251858
3	420	511.249627298291	2.233995358317
3	425	521.357896809128	3.437676896252
3	430	526.267830397831	4.102297036358
3	435	530.392780265307	0.765845644473
3	443	546.471266272796	0.390944182424
3	445	547.253270972887	4.257658106937
3	456	577.066358058639	1.315578065342
3	458	582.694725565635	9.169646273607
3	463	590.590734053637	14.094432813817
3	465	592.224515979692	5.375188271962
3	473	598.924927804539	3.004474934736
3	475	600.135803786626	1.783576097492
3	480	634.773801520883	1.568152588037
3	488	647.912830076703	1.682294407702
3	490	657.941085460087	13.990427580537
3	495	658.966353583587	0.464636837429
3	500	674.12980908122	5.981207074566
3	511	685.673808382348	9.909408908209
3	522	699.923247466507	15.513644300239
3	524	701.612585555847	21.080859461756
3	526	702.256795462311	14.80572979949
3	531	702.761688942577	15.213324035695
3	533	703.869782321822	14.120578064118
3	538	707.813260907048	5.451434757333
3	546	713.078019229847	7.961605032379
3	548	715.617865978413	7.568010680941
3	556	720.446999471027	3.220492483089
3	558	721.425562379524	2.091248900264
3	560	729.45951698923	17.961580903469
3	565	729.979458672442	0.447790155936
3	576	740.261714761919	2.678757524551
3	578	741.633104761464	2.851108247193
3	583	751.15616222331	11.102675763637
3	585	752.078338470273	9.65017869675
3	590	754.240496041897	0.275222633819
3	595	776.446268313725	1.611421457836
3	603	779.353832022982	2.55312483729
3	614	784.930996387546	0.131479760229
3	616	786.554592334968	7.328328562248
3	621	792.634157115485	10.17049078892
3	629	796.673879802486	13.440364624535
3	631	797.257846889272	0.695839813072
3	639	803.582493214071	1.167876920609
3	641	804.787539061956	15.139898943164
3	646	809.598856235972	15.758668546283
3	648	813.25353247797	15.49785680993
3	653	826.502562254948	18.726943007004
3	655	828.182117078935	5.228606023656
3	666	847.024713312254	15.729383585984
3	668	847.968321742453	5.511128020065
3	670	849.54261827875	10.439791572996
3	678	853.21405550925	2.935783638234
3	683	857.791755162142	1.674779331131
3	685	859.46275442266	8.023824111569
3	690	865.00496097897	3.848089974249
3	695	872.418077669263	0.682302017963
3	703	873.882205003434	0.224052359022
3	705	874.394858599723	1.114932250291
3	710	877.526541454908	1.036067045649
3	715	881.230122076468	2.220265751119
3	720	882.765872700979	0.728349194007
3	731	891.528247406483	0.564093295621
3	733	894.955123301147	6.999383462465
3	735	896.928599570639	6.960992715561
3	746	923.733017804914	3.913039952975
3	751	926.676336819709	10.628495656077
3	753	929.15339939518	9.889857316568
3	755	933.505257641639	7.828574295148
3	763	940.630924014835	2.101495495084
3	765	941.849902673572	2.245687805435
3	779	954.238158906588	5.267817708519
3	781	956.195568565008	4.637769122133
3	783	960.428992793299	11.233413212605
3	788	964.909836402758	14.872904115168
3	790	972.715019090305	9.430601466309
3	801	978.119736534179	4.952015032258
3	803	979.72788558316	5.626001022166
3	805	985.965162235115	8.462754652265
3	813	995.818957480116	2.312382605218
3	815	996.856332814308	5.919822035555
3	826	1020.272490474551	10.89458256025
3	831	1029.448151051917	18.268556832178
3	833	1033.04149460914	18.778735755977
3	835	1034.119099272863	7.599257867851
3	843	1035.604975238609	1.184934550203
3	848	1038.218519747817	3.601677634352
3	853	1056.734647166153	18.846078978213
3	855	1057.287063051072	8.439478716109
3	860	1069.582616695517	4.271027050746
3	865	1090.784601496174	5.775891465393
3	876	1107.476776673945	0.258478026586
3	887	1115.184482049139	2.296377615201
3	889	1115.599518336053	16.657479640487
3	891	1117.224830571675	17.671217242955
3	896	1119.234977892204	1.416819333316
3	898	1119.246959243328	11.324349750781
3	900	1121.757913033883	7.908157245903
3	905	1134.234464377317	10.346285971763
3	913	1143.433782400549	2.23167396059
3	921	1146.222014281231	4.327375082813
3	923	1147.162043689145	2.266437157311
3	925	1148.221022487256	3.333358611988
3	933	1155.710821894475	6.276433963682
3	935	1165.212192708002	11.507820361267
3	943	1171.952033053119	4.227641181464
3	945	1176.626940216661	8.7417132624
3	956	1186.079189159188	0.756036846389
3	958	1187.507329994427	5.476588767537
3	960	1187.89008929017	5.674743932753
3	965	1213.205975171088	0.667474767073
3	970	1215.396829450859	1.857885118988
3	975	1235.379385100108	5.483892968929
3	986	1252.969797076122	15.067989420302
3	991	1262.265135148008	10.356988562827
3	996	1265.197782074779	16.259048369412
3	998	1266.100934871248	10.884079693909
3	1006	1270.186860529037	6.994172359595
3	1017	1276.061917032259	4.216884239355
3	1025	1280.976430053293	7.153711090698
3	1033	1282.692918434136	6.878292718671
3	1041	1290.165711732621	6.205893336933
3	1043	1290.813771076398	8.872216308192
3	1045	1292.735157240243	25.348614043954
3	1047	1303.198167034276	34.49814906715
3	1049	1303.523214044511	24.385310802412
3	1054	1312.711507121284	0.392765257869
3	1059	1320.731884470782	41.120045501504
3	1061	1321.352314399664	39.757934992868
3	1063	1323.209174850166	4.761347128264
3	1071	1340.249004482181	7.147011255185
3	1073	1342.028564482113	56.356390139517
3	1075	1342.64443206543	3.408500646987
3	1083	1352.941531645608	9.448486767519
3	1088	1356.803327659681	13.051272439885
3	1090	1358.551129109624	3.56815620678
3	1095	1363.022082526688	3.063263074493
3	1100	1366.813506694682	1.873562216768
3	1105	1369.608304761266	2.387738968212
3	1110	1376.898216740429	3.451900233777
3	1115	1385.260541455871	4.33558477861
3	1120	1391.096678788744	3.219397492184
3	1125	1404.523725643704	1.628459740864
3	1133	1413.61343955226	1.93019420961
3	1138	1427.881839074516	19.003060215011
3	1146	1432.018600542171	1.736462395308
3	1148	1433.522968373293	9.787921182245
3	1150	1434.771809330659	3.990638682353
3	1155	1443.220565914622	1.998774385229
3	1160	1449.224730403753	3.91396430626
3	1168	1459.576101013535	8.504209743866
3	1170	1467.389066555071	9.611343713381
3	1178	1479.34462127268	8.268211474936
3	1183	1485.597675899392	2.126789529828
3	1185	1487.198494972633	9.20247989852
3	1190	1503.744437523776	3.695772524275
3	1198	1509.461785770879	0.358807104047
3	1200	1509.565342715924	0.392157295946
3	1205	1510.57858322544	0.662746869874
3	1216	1519.197676588343	5.510587384864
3	1218	1519.526229610818	5.235121762302
3	1220	1520.634859480051	2.076291672075
3	1225	1524.877802128515	1.346865100176
3	1230	1531.25340591478	0.65863906447
3	1241	1538.409149090941	5.445544492515
3	1243	1539.746489793689	6.435520602447
3	1248	1548.172348408496	10.32001111446
3	1250	1550.752646917162	9.511546190918
3	1255	1552.654117813258	0.548426283486
3	1263	1566.366380108257	0.947673706236
3	1265	1572.053134513593	8.491144219829
3	1273	1575.464382855419	0.478647304593
3	1275	1583.343415398881	10.095368060555
3	1280	1583.696340677216	0.241570419237
3	1294	1591.605782485591	2.571164386236
3	1296	1592.19235936135	2.888624841678
3	1301	1601.605624948057	16.951405548533
3	1303	1606.852517728849	21.692188531642
3	1308	1607.994564431542	10.633204692396
3	1319	1617.639757155957	10.164257927423
3	1321	1618.297116491691	4.371560901376
3	1323	1619.401727730134	3.011545606391
3	1325	1620.801585169945	3.762523332113
3	1333	1631.143643208755	3.155344003827
3	1335	1631.897064798352	6.405472176621
3	1340	1636.537562811221	0.258571447732
3	1348	1647.636603362417	1.479293871412
3	1350	1650.925797740533	5.901829154395
3	1355	1662.797909627809	1.810410603338
3	1360	1678.277918974145	4.502547755298
3	1365	1679.45384325288	0.466955974426
3	1373	1690.909939215269	4.366445788234
3	1375	1691.942813335764	5.583405922903
3	1380	1696.666728264226	1.415566056775
3	1388	1701.504383844104	3.447527400388
3	1399	1708.609729362924	3.486438702222
3	1401	1708.612845543684	8.213671370113
3	1403	1710.368338076507	8.541306997075
3	1411	1715.609838475574	2.362819464306
3	1413	1720.298195936521	12.308047796942
3	1415	1723.287280787137	12.128754090176
3	1429	1738.272159596656	11.948672667499
3	1431	1748.368790448404	18.19355327785
3	1436	1754.28334430922	23.689350003079
3	1438	1755.381743519439	21.204837140865
3	1443	1757.118376348344	4.367207720976
3	1445	1760.028682166103	3.642795926847
3	1456	1775.335091899566	8.363793079526
3	1467	1787.079148520725	13.582929852452
3	1469	1794.142988009071	7.791832090513
3	1471	1795.51636379849	15.637209679348
3	1473	1795.936667794534	21.731363485816
3	1475	1797.782682888578	12.420024959156
3	1480	1801.296038128407	1.999078922279
3	1488	1803.596648445629	2.056473683143
3	1496	1825.633100578906	3.2669751514
3	1501	1838.206124504737	35.151731462692
3	1503	1838.57904147592	3.819477814957
3	1511	1844.694553051256	30.711756086838
3	1525	1856.400146500592	12.235701067273
3	1527	1857.819516434334	4.500130341845
3	1529	1859.427028842859	5.581113764568
3	1531	1859.483434386812	13.319807042254
3	1539	1867.791828212371	0.331164570266
3	1544	1868.513173457295	24.012552497448
3	1546	1876.120550770627	26.355254568381
3	1551	1876.780599956911	12.131638735602
3	1556	1877.005407040023	0.095789520454
3	1561	1882.257593428486	5.741407608476
3	1566	1883.358405344804	2.707481576738
3	1568	1883.396303820155	0.850487171258
3	1573	1884.764118204577	16.910644629688
3	1575	1887.279918305649	3.042698929538
3	1583	1906.828895591737	13.861489015117
3	1585	1907.580505858483	3.483721077
3	1596	1920.686528306591	5.931928488104
3	1598	1923.533494988624	9.198044596707
3	1600	1931.520150138808	12.80809511471
3	1608	1942.30526023937	9.170585402706
3	1610	1942.512846566942	2.28248205505
3	1615	1950.267506531437	0.0715065745
3	1620	1956.069285503792	0.00463521151
3	1631	1963.247479757674	0.748023325616
3	1636	1965.843312331266	9.517807038932
3	1638	1966.550270835393	3.113285606264
3	1646	1975.056237628175	4.67728175532
3	1651	1978.607513257576	20.854909426618
3	1656	1979.074252224558	9.978414108756
3	1658	1981.989963758803	3.304114568892
3	1660	1982.744882961999	4.865536411
3	1665	2003.415969614625	2.300921456195
3	1670	2006.538753935898	0.310126533241
3	1678	2015.404530924592	0.615837321082
3	1680	2023.881009230546	11.437118848884
3	1688	2028.7458964353	1.393938689991
3	1690	2040.417897147081	12.884179555134
3	1698	2058.243813610655	3.346824107695
3	1703	2065.201414803986	7.971320919646
3	1708	2083.147922133795	22.157301854408
3	1710	2090.619502031942	19.774706523634
3	1721	2099.851344529597	7.252870156808
3	1723	2100.489889344001	7.510439382594
3	1725	2100.599247545366	6.923919178032
3	1736	2111.273367123319	10.137838145372
3	1738	2112.79525626631	6.650282987243
3	1743	2116.707643173822	3.022414865103
3	1745	2117.398961771536	15.337394211654
3	1750	2135.831477236482	0.341372931681
3	1758	2153.176600533242	0.515986645111
3	1763	2154.221828469812	0.910902974163
3	1768	2161.654862150688	0.660553473284
3	1776	2172.340834756151	19.502514646744
3	1778	2172.456648710958	0.450214299289
3	1783	2174.276385203221	0.214742626752
3	1785	2185.866643688919	19.371202487701
3	1790	2196.229026968786	1.013119578419
3	1801	2226.902438949942	7.906440524411
3	1806	2230.409917460287	1.808125140687
3	1808	2232.694419643543	12.640976700316
3	1810	2234.654318404757	12.851569896267
3	1815	2237.660650253317	0.43726881932
3	1823	2248.702803210853	1.99498100393
3	1834	2251.063483277244	0.090190398178
3	1836	2253.188738674042	3.435029956257
3	1838	2253.399442654091	8.169548832391
3	1846	2259.545519771499	9.100589739798
3	1848	2259.88348085253	3.875376122213
3	1850	2265.723157533201	7.805596518294
3	1858	2269.752721475231	0.368613142648
3	1863	2270.980391956482	3.262976499286
3	1871	2274.693603897427	4.027543673162
3	1873	2278.682274775506	7.671452669418
3	1875	2279.441932570782	5.740427813011
3	1889	2289.452381508787	2.233174007031
3	1891	2289.485885015701	8.339653386806
3	1893	2296.812843902488	14.846846493748
3	1895	2308.988647323018	23.893202105446
3	1900	2316.258449198698	1.764141755094
3	1911	2320.497865074728	0.685187947933
3	1913	2320.617020977732	0.718287173963
3	1915	2324.450791467337	5.618204147371
3	1929	2329.151052224305	1.632248247204
3	1931	2329.914416737704	3.901835743026
3	1933	2332.282735927025	3.83532622159
3	1935	2332.973832968387	5.357611086745
3	1940	2341.253399876804	6.282924817223
3	1945	2344.568141021033	2.361678022023
3	1953	2349.942707366613	0.410859199741
3	1955	2350.407547776953	4.559080886529
3	1966	2358.200971935548	3.574470479428
3	1968	2358.313733664043	3.323848633196
3	1973	2363.613089175358	7.087285878634
3	1978	2365.980424760453	0.329690223533
3	1980	2366.378590135434	3.319102403934
3	1985	2369.576064370372	1.862230481906
3	1993	2375.896612209877	1.30405102799
3	1998	2382.993889567124	7.273863453083
3	2000	2387.528740271483	4.780059216868
3	2008	2412.980761469528	9.289670155602
3	2013	2414.747825521208	2.147475691626
3	2015	2418.654358531909	4.876947121126
3	2020	2429.645917530876	2.024382035072
3	2031	2439.069659911883	6.680699656933
3	2033	2439.210380245191	9.194443227696
3	2041	2445.314976089471	11.761961731305
3	2043	2446.57627935707	4.961049484814
3	2054	2455.390247158159	14.390785600141
3	2056	2457.084326941967	10.00475047543
3	2061	2458.185363690513	0.808752060026
3	2063	2461.178831088489	8.278599158017
3	2065	2462.044984557577	11.029838331921
3	2070	2473.510623668117	0.691142062776
3	2075	2480.402490580636	3.66914046582
3	2083	2489.957104249615	7.664974600816
3	2088	2490.423226857479	0.092029390856
3	2090	2490.649867620858	0.706894521782
3	2095	2495.669363423472	0.225691535952
3	2100	2496.735894971132	0.753566146383
3	2105	2509.618714285521	2.782702408215
3	2110	2529.809857995451	0.850706731813
3	2115	2539.579172020396	1.432032354998
3	2120	2544.434156475853	4.235787366957
3	2125	2560.234257855133	4.829155643874
3	2130	2561.377183077132	0.278819180953
3	2138	2570.599049670247	5.027688145773
3	2140	2572.496219263345	5.03494415955
3	2145	2575.225846102598	2.291735438838
3	2153	2587.3356229417	6.577331372093
3	2161	2591.477232253427	6.022458933325
3	2163	2591.646181104981	3.735433769977
3	2165	2595.670123820442	8.319404868827
3	2173	2597.913464230144	0.633191445759
3	2178	2606.792582536215	10.505645563187
3	2180	2614.198234877892	8.975795801054
3	2185	2619.814007498507	0.63847251493
3	2190	2628.136539623989	4.267646912152
3	2195	2631.702503016962	3.373579769443
3	2203	2645.243366424135	1.40214799855
3	2214	2659.35578275843	15.963444447998
3	2216	2661.257714201389	15.470500294368
3	2224	2673.802344763926	2.05118465847
3	2229	2683.892842805776	9.664467946626
3	2231	2692.048381885077	39.871830270714
3	2233	2694.999954135238	40.168339817486
3	2244	2700.173201090043	27.796748468313
3	2246	2702.721855136119	3.055742301858
3	2248	2708.658340952076	12.596589568202
3	2253	2712.832030205539	16.541456974962
3	2255	2713.851910553652	1.031482493962
3	2263	2716.323317196769	0.771193137212
3	2268	2717.624405015381	0.697443401493
3	2273	2720.077468784047	4.50748635174
3	2278	2723.953989437204	3.884596771348
3	2283	2727.423848064383	2.738120263036
3	2285	2729.291103132822	8.505424734304
3	2293	2731.60197393374	1.510518210074
3	2298	2750.716016695071	20.485764303855
3	2300	2751.494181425463	6.740899104185
3	2308	2754.496336522325	1.627858883352
3	2313	2759.056294631442	7.507493714577
3	2318	2763.944184308171	5.920284125134
3	2326	2768.077122359163	1.191054599693
3	2328	2770.401542127714	9.227767209516
3	2330	2770.877474052992	3.662053317434
3	2335	2797.820073747367	7.074022115463
3	2343	2804.568068766474	1.177251213869
3	2351	2813.320168629319	2.038407950811
3	2353	2814.482133786534	10.947319967066
3	2355	2815.656580517921	9.181403160307
3	2363	2837.290375635394	0.384922100878
3	2365	2838.009617271081	8.9710686582
3	2373	2845.761053235005	1.823252898235
3	2375	2846.86204473872	1.833301512964
3	2380	2851.573273681248	1.288871943017
3	2388	2863.495285658725	5.680718965456
3	2393	2865.184274434253	5.098750000275
3	2398	2869.986188567129	5.293803619524
3	2400	2875.171354063302	8.660177773979
3	2408	2876.864261767755	0.268114583588
3	2410	2884.988135121608	8.161557961699
3	2415	2887.967183122791	1.601635300917
3	2426	2895.465248557015	3.75070183947
3	2431	2896.245460131526	7.629173576707
3	2436	2907.888656544626	6.554913516396
3	2441	2910.399060027952	1.641921398143
3	2446	2911.956235678853	18.138375510259
3	2448	2914.212774898698	18.659829693953
3	2453	2914.998212524038	3.691862389936
3	2455	2915.121202668906	0.754860915581
3	2460	2929.38736127914	6.140072546908
3	2468	2939.587653820896	7.951762809669
3	2470	2943.731937032133	7.442779987421
3	2481	2956.650976837487	4.633453061491
3	2483	2957.07572854965	2.528868459942
3	2488	2958.184368471204	1.768221094549
3	2490	2958.517987057534	0.476588854436
3	2501	2980.505649958256	6.302966608767
3	2506	2983.821436333244	9.540151857907
3	2508	2987.483618417437	6.439883731842
3	2510	2989.614980054084	18.212636555107
3	2515	2994.239683569609	0.920388151959
3	2526	3015.760815847666	2.442565460144
3	2528	3018.407895320604	3.49940487299
3	2533	3026.700010059049	26.239536288965
3	2544	3041.316854017098	7.488125539094
3	2546	3041.524828445793	20.82464376303
3	2548	3043.565134169709	10.668803014226
3	2550	3048.317310996998	14.724561679926
3	2558	3057.122344007857	7.466005471347
3	2560	3059.64257138463	8.998186945137
3	2565	3073.565226896777	3.218225328552
3	2579	3084.463871751788	3.101844885111
3	2581	3084.923692365719	6.615731449113
3	2583	3089.099753562796	5.507163102608
3	2585	3091.438726912192	11.101766912925
3	2593	3115.064779328396	0.488243197182
3	2595	3116.016048948373	3.339618598572
3	2600	3119.10815107168	2.989811779411
3	2608	3122.718245042084	2.272700923121
3	2610	3124.256691868386	3.234276447311
3	2615	3129.321138724393	3.153467049321
3	2620	3149.194317253339	1.57753589894
3	2625	3156.794022542206	4.770211899677
3	2633	3166.023550643426	7.872879962925
3	2635	3166.802412542772	1.648351439842
3	2640	3171.436117688962	0.1083166135
3	2645	3176.946497336389	2.960113345613
3	2650	3195.989892583142	13.725051529877
3	2655	3200.546656529326	1.55431457546
3	2660	3208.717674886496	1.113748587502
3	2668	3213.781416610609	1.747592893433
3	2670	3215.194359368899	1.604174676165
3	2678	3224.287222325781	0.492380287686
3	2686	3230.523979830116	0.997181874826
3	2688	3231.279713362781	10.966462898871
3	2693	3236.017576778564	10.722448523593
3	2698	3238.604466279172	4.796971049534
3	2700	3243.382472315221	6.87264014606
3	2705	3249.277445435843	0.231033321837
3	2710	3260.487695211981	5.603746100225
3	2718	3269.25036594287	5.182209246714
3	2720	3273.426669140791	8.673892618193
3	2725	3279.474975731573	2.764907285867
3	2733	3295.476377631713	4.121899997182
3	2738	3299.549635440492	3.213784492559
3	2743	3308.751299594677	17.334706769064
3	2745	3310.091751710607	2.235137935848
3	2753	3316.636574348761	3.759962544663
3	2755	3316.807946194212	2.939650710213
3	2763	3329.961462787652	6.472232325921
3	2765	3331.99776418641	2.756767922152
3	2770	3333.681223344908	0.59995760543
3	2775	3338.281013478624	3.072345940464
3	2786	3359.003714142021	19.516712801799
3	2788	3359.392964854263	17.25161426586
3	2793	3359.887877304674	0.241361767569
3	2798	3366.324899677264	5.012068880081
3	2800	3369.471706782497	20.239520265109
3	2808	3374.253958732941	2.964739232741
3	2810	3374.372821899158	0.406557629155
3	2818	3385.441707638263	2.646651486594
3	2820	3385.650232347794	8.084113856665
3	2825	3390.335024098645	1.022722335712
3	2833	3404.925694173926	3.982520405063
3	2835	3405.278208540873	14.840567852477
3	2840	3407.133330346619	0.406363099608
3	2845	3419.365396734342	0.189205469744
3	2862	3435.189839975846	12.099149237956
3	2864	3435.357220671065	6.480777260417
3	2866	3436.095264161223	6.221142527171
3	2868	3440.341185447816	5.857255737905
3	2873	3445.409213043026	10.657465436147
3	2875	3445.5201578351	2.166031823096
3	2880	3451.180078700236	2.308858999065
3	2885	3462.589741108356	7.734703624734
3	2890	3463.518355640067	0.777096228959
3	2898	3472.419852242911	0.993169081761
3	2900	3473.870929534299	2.83081464371
3	2905	3493.532734298828	4.793184036811
3	2913	3510.227473782204	4.681748186039
3	2921	3512.072084716213	2.141933697477
3	2926	3516.189434789162	1.668099597569
3	2928	3516.533995644299	4.85257088737
3	2930	3519.688721018479	7.731720777908
3	2935	3535.433991982589	4.044272183614
3	2943	3543.735817604833	0.295793587553
3	2945	3545.51355169802	2.468653789774
3	2950	3548.727884080675	2.773069565431
3	2955	3574.534623388034	0.67643515893
3	2972	3588.839762477733	9.458591565026
3	2974	3589.00415505724	7.116528472858
3	2976	3589.096619608683	2.777671729474
3	2987	3604.62787443859	22.605579878631
3	2989	3609.045783564946	21.308670728557
3	2991	3610.77175248139	20.210403584792
3	2993	3613.140078044058	16.937770883187
3	2998	3620.55778802903	0.031545522366
3	3000	3621.772051901061	18.973607863285
3	3005	3634.617134583708	3.184064068851
3	3010	3646.421139850963	2.473830247975
3	3018	3658.959066909795	0.988835975438
3	3029	3679.822055958826	23.019670942817
3	3031	3684.255725519629	5.802399000937
3	3033	3684.689441693776	7.007425571573
3	3038	3687.95671056901	0.040124672941
3	3046	3704.363681477596	4.95494198057
3	3048	3709.238432248513	29.691140206551
3	3050	3711.716740706909	14.961373067949
3	3058	3716.7782157033	1.269221476164
3	3063	3719.721659365637	0.70810870875
3	3071	3727.222246370044	7.323482941729
3	3073	3728.086946170347	3.380659191293
3	3075	3728.647207762714	13.194725621291
3	3083	3734.342067498456	2.395013205571
3	3085	3735.388196300744	3.441125690113
3	3093	3754.943348927337	7.341934474624
3	3101	3760.266585439058	5.131914143819
3	3109	3769.14568539973	14.889986264976
3	3111	3770.910881411488	14.047513195844
3	3116	3774.303367061363	11.958339122176
3	3118	3776.101855085021	2.251050296372
3	3120	3779.892514908706	13.591944348829
3	3125	3789.69525591013	8.314987586294
3	3130	3793.900065432917	1.156802546938
3	3141	3796.792099516914	2.653799393845
3	3146	3801.418236725551	6.90848754371
3	3151	3802.373179335041	0.74521239212
3	3153	3803.149772590157	3.890465884645
3	3155	3809.966475803012	15.040909642094
3	3160	3823.963301324505	7.965041028592
3	3165	3834.077567488809	1.535148648419
3	3170	3851.704174261591	0.994840988642
3	3175	3863.058880804274	0.126690207465
3	3186	3868.284550968171	3.260043574281
3	3191	3871.101588086807	6.615185582185
3	3196	3872.742929837901	5.055800628121
3	3198	3876.519744113726	7.222495131601
3	3203	3878.174799859808	5.776296152039
3	3211	3892.212768267774	15.0638763808
3	3213	3894.417335625651	5.320334566118
3	3215	3898.33272681043	15.128975571009
3	3220	3906.477103650383	5.78425515725
3	3231	3921.738450041218	1.075611512574
3	3239	3929.815958062702	22.12989343468
3	3241	3930.113596584473	7.475562659855
3	3246	3952.881079556863	5.096409844113
3	3251	3963.655488070907	42.615374398876
3	3253	3965.927680839207	38.54954939187
3	3255	3968.376055751533	10.853183636531
3	3260	3970.125169313515	0.814588064847
3	3265	3978.796638070164	5.719798494851
3	3270	3997.126873795899	4.158816089635
3	3276	4007.870116084877	9.716225055777
