version 2
run Testbench_1-1382-20170516-19:22:47-60916
attr configname Testbench_1
attr datetime 20170516-19:22:47
attr experiment Testbench_1
attr inifile omnetpp.ini
attr iterationvars $0=350
attr iterationvars2 "$0=350, $repetition=82"
attr measurement $0=350
attr network Toll_road
attr processid 60916
attr repetition 82
attr replication #82
attr resultdir results
attr runnumber 1382
attr seedset 1382
param **.numBooths 3
param **.queue[*].serviceTime exponential(5.11s)
param **.source.interArrivalTime exponential(5.854s)
param **.source.numJobs 1000

vector 0  Toll_road.queue[0]  jobsProcessed:vector  ETV
attr interpolationmode  none
attr source  queueingTime
attr title  "jobs processed, vector"
vector 1  Toll_road.sink  lifeTime:vector  ETV
attr interpolationmode  none
attr title  "lifetime of arrived jobs, vector"
attr unit  s
0	3	0.227508340425	0
0	10	2.162429303958	1.636759056694
0	12	4.127632461479	2.77066464268
0	18	20.777824952662	0
0	28	23.421738341625	2.270854082749
0	33	28.427523028682	6.946531513295
0	35	31.27900792402	9.371914528252
0	43	35.273286043505	9.12046303491
0	57	44.45334071686	10.063241768895
0	59	47.752617329745	13.120390308572
0	61	49.087041593558	9.529500567778
0	63	49.244088791845	9.534836361031
0	65	51.083804556845	9.844751233235
0	67	60.529547736696	16.330130921581
0	73	71.078538544044	0
0	78	74.356790134564	0
0	82	77.128881594977	0.811725641887
0	87	86.622405683134	0.035105075428
0	93	93.769662096853	0
0	98	102.401777275385	0
0	103	110.221796361289	0
0	110	120.359444516569	9.455846587763
0	121	126.613865188243	10.183683149852
0	126	128.201697416898	5.280016430861
0	131	133.013526761805	9.767449881427
0	133	139.878110416732	14.623741701541
0	135	140.031763237071	12.684053902646
0	146	148.154879756958	15.145190653061
0	148	153.211171130141	9.233110957802
0	150	156.973706601413	12.400844611045
0	155	166.417348776696	21.336479008226
0	157	168.627304311282	2.316102943812
0	162	176.848607726705	7.474604539464
0	170	177.947424943524	0.29930395802
0	172	178.444435678651	0.560143150443
0	183	186.531077197311	7.529086300964
0	188	189.013054164485	7.130902676168
0	193	194.339464998747	10.476069620354
0	204	208.96444937264	20.717414282891
0	206	209.15667433432	15.600546652042
0	208	209.802293130428	11.760209308323
0	210	212.22584609273	6.649919954763
0	215	221.85881699999	13.762351334501
0	223	228.066179844945	8.910240281001
0	225	229.313578115386	5.361729495243
0	230	239.384875200756	13.332791935984
0	235	240.63487052958	10.415769437728
0	237	241.47971395994	2.070022703343
0	243	245.277991554147	0
0	248	254.684511186865	0
0	253	262.885593160886	0
0	258	263.922111683035	0
0	263	264.413979374296	0
0	268	266.729689731257	0
0	272	272.651031948885	0.336729407094
0	278	285.336781663645	0
0	283	287.335348724576	0
0	288	291.367779692236	0
0	293	299.811072263123	0
0	298	310.421600343474	0
0	303	333.407142710509	0
0	308	336.630886386945	0
0	313	339.780974527199	0
0	326	361.470015068623	12.502281982856
0	331	368.33113179409	16.481474800105
0	339	373.326393677559	20.303152081263
0	341	374.813461874597	21.477352776942
0	343	374.996420369852	10.200376242407
0	345	378.181258583035	6.753569723162
0	347	381.640845827024	10.097296215815
0	353	384.782564288035	0
0	358	400.309267107717	0
0	362	400.438201204931	0.01656944124
0	367	407.206857682516	2.582311694554
0	373	424.582587092429	0
0	378	431.487366828012	0
0	394	455.93499147328	22.056321574252
0	396	458.835205855428	21.3600416952
0	398	464.605750054743	26.729258093445
0	403	471.092878016716	20.834368221946
0	405	474.371758390745	23.13681487788
0	407	475.768693661445	10.793660738475
0	413	478.507595861856	0
0	418	482.153697648378	0
0	422	489.238017423877	2.482814539834
0	428	492.133674091139	0
0	444	509.166107917656	13.29335013399
0	452	514.427925918392	16.387034444207
0	463	522.36976392829	17.465531143458
0	465	525.957949825987	20.84772865749
0	470	539.013033506537	33.582926163469
0	472	540.134690226957	28.854309328733
0	480	549.642092541301	37.404273335116
0	482	555.908705471177	40.67993523916
0	484	556.240148418299	38.290489252243
0	486	556.504231408757	34.858452583627
0	488	556.511339486299	28.906813689408
0	490	557.754267664207	15.554556500048
0	492	557.924400680692	15.280029729882
0	498	569.744532066315	0
0	503	572.56081926574	0
0	508	584.967396899519	0
0	515	589.680117599631	2.125049967043
0	517	599.392831674616	11.323061068152
0	522	602.996209693931	1.542388622427
0	528	610.449565633214	0
0	533	618.92715054083	0
0	538	619.770503359975	0
0	542	623.678584953448	0.117009805162
0	548	632.663632903675	0
0	558	642.797232753696	8.10016666713
0	560	647.241826260573	10.836701988723
0	562	648.429233028647	10.60980486564
0	568	649.669019122898	0
0	578	652.317999551483	1.363875760436
0	580	655.078120767758	3.403137593041
0	585	663.758584577113	11.965489805682
0	590	665.489421261125	6.348896022514
0	604	673.69885555175	9.391240016436
0	606	674.165652996791	8.545970607822
0	608	678.4111076163	11.39039823756
0	613	683.862541500834	16.046113721974
0	615	686.433678270968	13.066546130953
0	617	689.848162089283	6.538270864692
0	623	697.928733078477	0
0	628	702.301993028481	0
0	632	704.779845290096	0.208387784397
0	643	712.057288631626	5.902674602551
0	651	715.704503026498	7.816689038967
0	659	720.00179296421	9.134308082233
0	661	723.442552328917	10.358753373223
0	672	730.454076209957	16.457903245648
0	674	732.12187039782	16.037600631976
0	676	735.677756673073	17.934957820709
0	690	747.401866879531	22.771001161887
0	692	747.550344278964	20.70531025397
0	694	751.375622867692	22.402592335087
0	696	752.305579676195	13.312132579746
0	698	755.76374709392	16.72087921015
0	700	757.864706824672	17.449029643925
0	705	759.692528689155	13.635847807854
0	725	779.75649893592	20.367061739827
0	727	780.571042092087	11.242571342082
0	729	795.538254235075	24.999087401281
0	731	796.453121888931	25.589289304648
0	736	799.101597333853	24.081954455
0	741	801.325775628572	22.824432430755
0	743	801.418540024995	22.741239103851
0	748	804.73919341074	7.67599562337
0	756	812.461569714822	12.833942380833
0	758	813.036269535418	8.818247593634
0	766	827.420328127746	18.400834052739
0	768	828.036278202612	17.624622549901
0	770	834.810415888793	17.626275655497
0	772	834.920470673153	7.708431573434
0	777	837.739056613953	0.777670269064
0	791	843.886839483695	5.825317143693
0	799	861.91034605335	23.202920521672
0	801	867.753671696702	27.814420629804
0	806	872.103507202491	28.813245074975
0	808	872.624469308281	26.01395291237
0	813	876.760204262931	25.626654637319
0	818	891.347672816377	23.299475628679
0	820	891.90678675358	16.157630973462
0	828	902.755877563281	15.348971728964
0	830	907.806032469978	15.65480067047
0	832	908.66202906649	8.258031658285
0	840	913.801313825456	5.136978381552
0	842	914.283365303703	1.160909369015
0	848	925.75917335506	0
0	852	927.443564371206	0.556825539493
0	857	932.208591340387	3.979748804689
0	863	941.712847720348	0
0	868	963.605407784201	0
0	881	990.753498465996	26.771663204654
0	886	993.990527625584	27.199037324482
0	888	1006.454358041133	30.32170225494
0	890	1007.946099219455	29.159599928749
0	892	1012.628994986274	19.309347228705
0	903	1017.796081757887	3.164931916139
0	911	1025.218086398219	10.044722970564
0	913	1025.961922860287	8.601544672552
0	918	1027.622122925525	2.996121074357
0	920	1029.593820214684	4.515279317663
0	922	1032.867835104995	5.470892961931
0	928	1043.680643203422	0
0	932	1050.441659577607	4.477995129458
0	938	1053.5451486956	0
0	942	1056.209587796457	1.389452643668
0	948	1068.128148804544	0
0	955	1079.132578833116	0.800766534404
0	957	1081.795945184303	2.972312907152
0	962	1083.74711502339	0.909123718154
0	968	1099.019138163302	0
0	973	1108.305924904546	0
0	978	1112.983401503839	0
0	983	1122.49166181322	0
0	987	1123.918270093018	0.485824997202
0	993	1127.733274720285	0
0	998	1141.715435067793	0
0	1003	1145.618406024919	0
0	1008	1153.348333070355	0
0	1015	1169.889063014927	11.346682533946
0	1017	1173.412054980997	8.942566943109
0	1023	1179.61554837111	0
0	1028	1179.809914409912	0
0	1033	1181.850801228303	0
0	1038	1199.290578500822	0
0	1045	1204.959672194663	0.832582886677
0	1047	1205.785340431912	1.54850688734
0	1053	1207.941656935843	0
0	1058	1212.458860064979	0
0	1062	1222.794611025987	5.759333568184
0	1068	1236.423436695202	0
0	1073	1239.590575297592	0
0	1077	1240.314487103189	0.231567256792
0	1094	1258.179014268452	13.730810720193
0	1108	1269.122656778226	23.529391466592
0	1110	1269.964106676494	23.220857533873
0	1121	1286.652618439913	34.395740561653
0	1123	1290.483676278525	34.911734859941
0	1131	1293.911023415087	30.672778257827
0	1142	1307.680877611289	44.185886914893
0	1144	1307.967324957628	43.813861738704
0	1146	1308.737422463105	40.501149291238
0	1154	1319.334692610326	41.461669937654
0	1159	1324.231557643678	38.958442078193
0	1161	1326.570545220159	41.219165966952
0	1163	1331.514690968635	40.522524307423
0	1165	1332.165448076937	39.8988646939
0	1167	1334.080965631723	37.296451086548
0	1178	1342.583025227341	43.953123471605
0	1180	1346.608450614637	47.143792339715
0	1194	1358.919689783907	46.353614481388
0	1196	1367.837617242866	48.581963072501
0	1198	1370.632509650766	47.686353826973
0	1200	1372.078792205352	36.329538057246
0	1208	1377.17637267198	41.362337275673
0	1210	1379.272626118288	40.160174524528
0	1218	1381.46720085107	27.240117945043
0	1220	1382.510520534389	26.364207455155
0	1225	1384.01561885501	26.267943325603
0	1227	1384.391973444304	26.05902350646
0	1229	1384.428771750471	9.123569061146
0	1231	1386.30325550767	9.582634528868
0	1233	1388.375810365293	7.167033695888
0	1238	1399.332136044224	17.865109564525
0	1240	1401.229316647471	18.071449543799
0	1245	1406.471082592197	11.494027712916
0	1247	1411.012448818677	6.798108911402
0	1258	1418.71988128421	7.324835953453
0	1269	1437.257494603396	22.226049528714
0	1271	1443.689775573251	25.48001137817
0	1273	1444.203573710987	24.078363553815
0	1275	1447.10856806965	24.817261224614
0	1277	1448.126292293127	21.846748678494
0	1283	1460.900819173562	0
0	1288	1466.108490622263	0
0	1293	1469.341646624663	0
0	1298	1477.842676112107	0
0	1308	1485.751408380491	7.880693541955
0	1313	1496.697413580408	15.285216519888
0	1315	1497.007611578545	11.943390880121
0	1317	1498.5291195758	6.741446510092
0	1322	1504.001707851686	3.685696413337
0	1328	1521.949960732423	0
0	1332	1527.133787374146	1.179303095672
0	1340	1532.769607603715	2.481557255105
0	1345	1534.772652919534	2.976346260748
0	1350	1535.428278130188	1.282324648059
0	1352	1538.219161772709	3.234201220044
0	1357	1542.181405750037	3.621553344851
0	1363	1548.60680576891	0
0	1368	1563.12065865042	0
0	1373	1563.49884171641	0
0	1378	1588.418832235553	0
0	1385	1597.849711129438	8.689839990806
0	1387	1602.678721547565	13.409918843104
0	1395	1615.509579376675	8.998688881371
0	1400	1618.939315007111	6.006554303839
0	1426	1633.828835259371	16.827100160343
0	1428	1648.817794669862	25.972006620123
0	1430	1650.972005317761	26.761440631593
0	1438	1654.371363976479	30.094287614489
0	1440	1658.268522301896	32.895975638502
0	1442	1660.687026378307	31.744702259993
0	1444	1662.008556263668	31.272757742206
0	1458	1682.05442378591	50.173368963759
0	1460	1682.680382082424	48.862652297913
0	1465	1686.922739961886	34.682413512112
0	1467	1689.916553510692	36.21173834403
0	1469	1690.826405046719	28.09492423512
0	1483	1694.824748993012	19.146885026996
0	1485	1699.118655498216	20.155296316705
0	1487	1699.501344845968	19.387915952451
0	1492	1704.828130139693	19.418277687937
0	1494	1706.2831472668	14.415607736563
0	1496	1706.414376590091	13.95559905502
0	1507	1719.648781419023	26.255523291471
0	1509	1720.083301251479	26.615994229911
0	1514	1722.514582896905	21.461333136513
0	1519	1738.325073897406	30.261007930508
0	1524	1741.778599741307	30.171013787576
0	1535	1755.337306319128	42.066276224651
0	1540	1773.927451689067	53.244551333868
0	1542	1774.107511831509	45.532093966795
0	1547	1777.582788764764	36.341649518103
0	1549	1785.498729594716	42.169906659083
0	1557	1806.938743876714	61.109142080314
0	1565	1822.084845137156	72.23435754586
0	1567	1828.095550600665	68.561206623
0	1572	1833.971928694321	59.651914207324
0	1574	1836.029961962598	37.631622869868
0	1576	1836.617709661466	31.600094604949
0	1578	1839.784934574338	31.914124077409
0	1583	1843.136902819517	27.649580360022
0	1585	1846.447406792303	15.612746648092
0	1587	1849.699092129682	8.811332767263
0	1593	1858.046689659392	0
0	1597	1860.432534823569	2.25449600897
0	1603	1876.066997328709	0
0	1616	1884.243215766864	4.151514249854
0	1618	1889.814688880037	7.235479420918
0	1623	1892.049911268836	8.752885331674
0	1631	1896.66583395429	12.684347982028
0	1636	1904.349467742739	13.465042586589
0	1638	1908.047084378999	14.281512917258
0	1640	1910.684548340774	14.499286590178
0	1645	1921.343956553413	21.897578742706
0	1647	1937.267257034955	25.676537039227
0	1653	1938.65325263293	0
0	1660	1945.104600592192	2.865433063038
0	1665	1948.913611253155	5.378629978657
0	1667	1950.534613506931	3.188610662243
0	1673	1957.416942313869	0
0	1678	1970.610324865606	0
0	1683	1978.242664124575	0
0	1688	1982.72538537998	0
0	1693	1994.638212285189	0
0	1697	2000.922216871554	4.210153227579
0	1703	2006.237028575912	0
0	1710	2026.729523968897	16.079963762671
0	1718	2042.350038553845	28.599503639153
0	1720	2045.422792450589	15.195990841895
0	1728	2057.620790317973	22.365633247251
0	1739	2070.554537961111	17.461986655798
0	1742	2079.070287491599	21.71123220327
0	1744	2081.856385382171	24.02125971471
0	1746	2084.561846029437	26.06558046269
0	1748	2084.96046472732	16.537433578262
1	11	2.162429303958	1.934920963533
1	13	4.127632461479	3.601962214215
1	15	13.16885344791	11.811885629111
1	29	23.421738341625	2.643913388963
1	34	28.427523028682	7.276638769806
1	36	31.27900792402	9.798016408633
1	44	35.273286043505	13.366192647737
1	58	44.45334071686	18.300517708265
1	60	47.752617329745	13.36251838178
1	62	49.087041593558	14.454814572385
1	64	49.244088791845	9.686547766065
1	66	51.083804556845	11.374552126031
1	68	60.529547736696	19.290494413086
1	70	61.452094610612	17.252677795497
1	75	72.593179168905	1.514640624861
1	83	77.128881594977	2.772091460413
1	88	86.622405683134	10.305249730044
1	90	89.227315942082	2.640015334376
1	95	98.063142135014	4.293480038161
1	100	105.942986060543	3.541208785158
1	111	120.359444516569	10.13764815528
1	122	126.613865188243	15.710267259437
1	127	128.201697416898	11.771515378507
1	132	133.013526761805	10.091845775768
1	134	139.878110416732	16.632033536354
1	136	140.031763237071	14.77739452188
1	147	148.154879756958	20.807170422533
1	149	153.211171130141	20.201482026244
1	151	156.973706601413	12.995646429074
1	156	166.417348776696	21.844486786328
1	158	168.627304311282	23.546434542812
1	163	176.848607726705	10.537406359235
1	171	177.947424943524	8.573421756283
1	173	178.444435678651	0.796314693147
1	184	186.531077197311	8.646784669103
1	189	189.013054164485	10.011063268138
1	194	194.339464998747	12.45731351043
1	205	208.96444937264	25.101053994247
1	207	209.15667433432	20.909639244571
1	209	209.802293130428	16.24616544815
1	211	212.22584609273	14.183762270625
1	216	221.85881699999	16.282890862023
1	224	228.066179844945	19.969714179456
1	226	229.313578115386	10.157638551442
1	231	239.384875200756	15.433026580613
1	236	240.63487052958	14.582787264808
1	238	241.47971395994	11.260612868088
1	240	242.268333979564	2.858642722967
1	245	245.80431991343	0.526328359283
1	250	255.650711994082	0.966200807217
1	255	263.751952472225	0.866359311339
1	260	264.082119519053	0.160007836018
1	265	264.91738982529	0.503410450994
1	273	272.651031948885	5.921342217628
1	275	283.630344142853	11.316041601062
1	280	285.839655153616	0.502873489971
1	285	288.298355911566	0.96300718699
1	290	292.112327139092	0.744547446856
1	295	304.371203269468	4.560131006345
1	300	310.979824598208	0.558224254734
1	305	334.094631803106	0.687489092597
1	310	336.993134150522	0.362247763577
1	327	361.470015068623	21.689040541424
1	332	368.33113179409	19.363398708323
1	340	373.326393677559	21.476736683574
1	342	374.813461874597	21.790220278301
1	344	374.996420369852	21.660311272197
1	346	378.181258583035	13.38521445559
1	348	381.640845827024	10.213156967151
1	350	383.836801492822	12.293251881613
1	355	391.844268954079	7.061704666044
1	363	400.438201204931	0.128934097214
1	368	407.206857682516	6.785225918825
1	370	421.764767012095	17.140221024133
1	375	426.61162491257	2.029037820141
1	395	455.93499147328	24.447624645268
1	397	458.835205855428	24.9565359564
1	399	464.605750054743	27.130585894515
1	404	471.092878016716	33.216386055418
1	406	474.371758390745	24.113248595975
1	408	475.768693661445	24.53375014858
1	410	477.161779124032	12.186746201062
1	415	478.807557355873	0.299961494017
1	423	489.238017423877	7.084319775499
1	425	490.312887246865	3.557684362822
1	445	509.166107917656	17.032433826517
1	453	514.427925918392	18.555168134726
1	464	522.36976392829	24.328872454105
1	466	525.957949825987	21.053717041155
1	471	539.013033506537	33.90281233804
1	473	540.134690226957	34.704582883889
1	481	549.642092541301	38.361711643077
1	483	555.908705471177	43.670886264992
1	485	556.240148418299	41.011378186282
1	487	556.504231408757	38.554572242701
1	489	556.511339486299	34.865560661169
1	491	557.754267664207	30.149741867316
1	493	557.924400680692	15.724689516533
1	495	558.44277223692	15.79840128611
1	500	570.400638471361	0.656106405046
1	505	579.041353672822	6.480534407082
1	516	589.680117599631	4.712720700112
1	518	599.392831674616	11.837764042028
1	523	602.996209693931	14.926439087467
1	525	603.838667888067	2.384846816563
1	530	610.958610445066	0.509044811852
1	535	619.277983041878	0.350832501048
1	543	623.678584953448	3.908081593473
1	545	630.070217719439	6.508642571153
1	559	642.797232753696	10.133599850021
1	561	647.241826260573	12.544760174007
1	563	648.429233028647	12.024108756797
1	565	648.577296033128	10.757867870121
1	579	652.317999551483	2.648980428585
1	581	655.078120767758	4.123996976711
1	586	663.758584577113	12.083601402396
1	591	665.489421261125	13.696326489694
1	605	673.69885555175	14.558330313139
1	607	674.165652996791	9.858037461477
1	609	678.4111076163	12.791425227331
1	614	683.862541500834	16.841832122094
1	616	686.433678270968	18.617250492108
1	618	689.848162089283	16.481029949268
1	620	692.129507170396	8.819615945805
1	625	698.046397413771	0.117664335294
1	633	704.779845290096	2.477852261615
1	644	712.057288631626	7.485831125927
1	652	715.704503026498	9.549888997423
1	660	720.00179296421	12.113978976679
1	662	723.442552328917	12.57506744694
1	673	730.454076209957	17.370277254263
1	675	732.12187039782	18.125697433511
1	677	735.677756673073	19.593486907229
1	691	747.401866879531	29.659068027167
1	693	747.550344278964	22.91947856132
1	695	751.375622867692	24.530588842698
1	697	752.305579676195	23.33254914359
1	699	755.76374709392	16.770299997471
1	701	757.864706824672	18.821838940902
1	706	759.692528689155	19.276851508408
1	726	779.75649893592	33.699818054619
1	728	780.571042092087	21.181604895994
1	730	795.538254235075	26.20978348507
1	732	796.453121888931	25.913955055137
1	737	799.101597333853	28.23776474957
1	742	801.325775628572	26.306132749719
1	744	801.418540024995	22.917196827178
1	749	804.73919341074	26.061892489596
1	757	812.461569714822	15.398371927452
1	759	813.036269535418	13.408642201429
1	767	827.420328127746	23.202306185962
1	769	828.036278202612	19.016784127605
1	771	834.810415888793	24.398760236082
1	773	834.920470673153	17.736330439857
1	778	837.739056613953	10.527017514234
1	792	843.886839483695	6.925453138806
1	800	861.91034605335	23.848823713348
1	802	867.753671696702	29.046246165024
1	807	872.103507202491	32.164256135593
1	809	872.624469308281	29.334207180765
1	814	876.760204262931	30.14968786702
1	819	891.347672816377	40.214123190765
1	821	891.90678675358	23.858589565882
1	829	902.755877563281	27.006721783163
1	831	907.806032469978	20.399126635661
1	833	908.66202906649	16.510797266982
1	841	913.801313825456	13.397316417251
1	843	914.283365303703	5.619029859799
1	845	920.577938550916	7.455482616228
1	853	927.443564371206	1.684391016146
1	858	932.208591340387	5.321852508674
1	860	932.658531134811	4.429688599113
1	865	945.105888911627	3.393041191279
1	882	990.753498465996	27.148090681795
1	887	993.990527625584	30.008692364242
1	889	1006.454358041133	39.662867740031
1	891	1007.946099219455	31.813443433262
1	893	1012.628994986274	33.842495695568
1	904	1017.796081757887	24.476434000318
1	912	1025.218086398219	10.586936556471
1	914	1025.961922860287	10.788559432632
1	919	1027.622122925525	10.26174473779
1	921	1029.593820214684	4.967818363516
1	923	1032.867835104995	7.789294207974
1	925	1037.132759214711	9.735817071647
1	933	1050.441659577607	6.761016374185
1	935	1052.384914952285	6.421250504136
1	943	1056.209587796457	2.664439100857
1	945	1065.944978808241	11.124843655452
1	956	1079.132578833116	11.004430028572
1	958	1081.795945184303	3.464132885591
1	963	1083.74711502339	4.923482746239
1	965	1086.019275148859	3.181283843623
1	970	1101.292939964871	2.273801801569
1	975	1108.818038448075	0.512113543529
1	980	1120.123303030936	7.139901527097
1	988	1123.918270093018	1.426608279798
1	990	1127.470080572953	4.037635477137
1	995	1127.78626365031	0.052988930025
1	1000	1143.332695920779	1.617260852986
1	1005	1151.712552448028	6.094146423109
1	1016	1169.889063014927	16.540729944572
1	1018	1173.412054980997	14.869674500016
1	1020	1173.453725474727	8.984237436839
1	1025	1179.643709419688	0.028161048578
1	1030	1181.308368032506	1.498453622594
1	1035	1188.249780779344	6.398979551041
1	1046	1204.959672194663	5.669093693841
1	1048	1205.785340431912	1.658251123926
1	1050	1206.220991399512	1.98415785494
1	1055	1208.265475533699	0.323818597856
1	1063	1222.794611025987	10.335750961008
1	1065	1224.462199263474	7.426921805671
1	1070	1239.453784348699	3.030347653497
1	1078	1240.314487103189	0.723911805597
1	1095	1258.179014268452	18.096094422055
1	1109	1269.122656778226	24.674453229967
1	1111	1269.964106676494	24.37084136486
1	1122	1286.652618439913	39.909369297292
1	1124	1290.483676278525	38.226798400265
1	1132	1293.911023415087	38.339081996503
1	1143	1307.680877611289	44.442632454029
1	1145	1307.967324957628	44.472334261232
1	1147	1308.737422463105	44.583959244181
1	1155	1319.334692610326	51.098419438459
1	1160	1324.231557643678	46.358534971006
1	1162	1326.570545220159	41.297429654674
1	1164	1331.514690968635	46.163311715428
1	1166	1332.165448076937	41.173281415725
1	1168	1334.080965631723	41.814382248686
1	1179	1342.583025227341	45.798510682166
1	1181	1346.608450614637	47.978548858901
1	1195	1358.919689783907	59.455031508985
1	1197	1367.837617242866	55.271541940347
1	1199	1370.632509650766	51.376855480401
1	1201	1372.078792205352	49.132636381559
1	1209	1377.17637267198	41.427118523874
1	1211	1379.272626118288	43.458590721981
1	1219	1381.46720085107	42.35474925731
1	1221	1382.510520534389	28.283437628362
1	1226	1384.01561885501	27.869305775776
1	1228	1384.391973444304	26.644297914897
1	1230	1384.428771750471	26.095821812627
1	1232	1386.30325550767	10.998052818345
1	1234	1388.375810365293	11.655189386491
1	1239	1399.332136044224	18.123359374819
1	1241	1401.229316647471	19.762290167772
1	1246	1406.471082592197	23.313215488525
1	1248	1411.012448818677	16.035393939396
1	1259	1418.71988128421	14.505541376935
1	1270	1437.257494603396	25.862449272639
1	1272	1443.689775573251	28.658330498569
1	1274	1444.203573710987	25.993809515906
1	1276	1447.10856806965	26.983357912478
1	1278	1448.126292293127	25.834985448091
1	1280	1449.80403336561	23.524489750977
1	1285	1462.019806908599	1.118987735037
1	1290	1466.942437894857	0.833947272594
1	1295	1475.235660826212	5.894014201549
1	1309	1485.751408380491	7.908732268384
1	1314	1496.697413580408	18.826698741872
1	1316	1497.007611578545	15.595414518025
1	1318	1498.5291195758	13.464898877376
1	1323	1504.001707851686	12.214034785978
1	1325	1505.226431005997	4.910419567648
1	1333	1527.133787374146	5.183826641723
1	1341	1532.769607603715	6.815123325241
1	1346	1534.772652919534	4.484602570924
1	1351	1535.428278130188	3.631971471402
1	1353	1538.219161772709	4.07320829058
1	1358	1542.181405750037	7.196445197372
1	1360	1543.764600134697	5.204747729511
1	1365	1549.209491459705	0.602685690795
1	1370	1563.126000612587	0.005341962167
1	1375	1565.205366429346	1.706524712936
1	1386	1597.849711129438	9.430878893885
1	1388	1602.678721547565	13.518850408933
1	1396	1615.509579376675	26.240776672214
1	1401	1618.939315007111	12.428424511807
1	1427	1633.828835259371	20.896074556099
1	1429	1648.817794669862	31.816059570834
1	1431	1650.972005317761	28.126217268022
1	1439	1654.371363976479	30.160799290311
1	1441	1658.268522301896	33.991445939906
1	1443	1660.687026378307	35.314479714913
1	1445	1662.008556263668	33.066232145354
1	1459	1682.05442378591	51.318625264448
1	1461	1682.680382082424	50.799327260273
1	1466	1686.922739961886	53.105010177375
1	1468	1689.916553510692	37.676227060918
1	1470	1690.826405046719	37.121589880057
1	1484	1694.824748993012	32.093268181413
1	1486	1699.118655498216	23.4407915322
1	1488	1699.501344845968	20.537985664457
1	1493	1704.828130139693	24.714701246176
1	1495	1706.2831472668	20.873294815044
1	1497	1706.414376590091	14.546837059854
1	1508	1719.648781419023	27.190003883952
1	1510	1720.083301251479	26.690043123927
1	1515	1722.514582896905	29.047275875337
1	1520	1738.325073897406	37.271824137014
1	1525	1741.778599741307	33.714533774409
1	1536	1755.337306319128	43.729720365397
1	1541	1773.927451689067	60.65642159459
1	1543	1774.107511831509	53.42461147631
1	1548	1777.582788764764	49.00737090005
1	1550	1785.498729594716	44.257590348055
1	1558	1806.938743876714	63.609920941081
1	1566	1822.084845137156	76.255243340756
1	1568	1828.095550600665	78.245063009369
1	1573	1833.971928694321	74.437584716656
1	1575	1836.029961962598	61.709947475601
1	1577	1836.617709661466	38.219370568736
1	1579	1839.784934574338	34.767319517821
1	1584	1843.136902819517	35.266092322588
1	1586	1846.447406792303	30.960084332808
1	1588	1849.699092129682	18.864431985471
1	1590	1849.89338729766	9.005627935241
1	1598	1860.432534823569	2.385845164177
1	1600	1874.651759926325	16.473721111726
1	1617	1884.243215766864	8.176218438155
1	1619	1889.814688880037	9.722987363027
1	1624	1892.049911268836	9.470701809717
1	1632	1896.66583395429	13.368808017128
1	1637	1904.349467742739	20.367981770477
1	1639	1908.047084378999	17.162659222849
1	1641	1910.684548340774	16.918976879033
1	1646	1921.343956553413	25.158694802817
1	1648	1937.267257034955	37.820879224248
1	1650	1937.340608285985	25.749888290257
1	1661	1945.104600592192	6.451347959262
1	1666	1948.913611253155	6.674443724001
1	1668	1950.534613506931	6.999632232433
1	1670	1951.541407455529	4.195404610841
1	1675	1958.221050409773	0.804108095904
1	1680	1972.214313319975	1.603988454369
1	1685	1978.357520722001	0.114856597426
1	1690	1984.284805425274	1.559420045294
1	1698	2000.922216871554	6.284004586365
1	1700	2002.215130587979	5.503066944004
1	1711	2026.729523968897	20.492495392985
1	1719	2042.350038553845	31.700478347619
1	1721	2045.422792450589	31.672257535897
1	1729	2057.620790317973	27.393988709279
1	1740	2070.554537961111	35.299380890389
1	1743	2079.070287491599	25.977736186286
1	1745	2081.856385382171	24.497330093842
1	1747	2084.561846029437	26.726720361976
1	1749	2084.96046472732	26.464199160573
1	1751	2100.564652015247	32.141620866189
