version 2
run Testbench_1-1169-20170516-19:21:41-59596
attr configname Testbench_1
attr datetime 20170516-19:21:41
attr experiment Testbench_1
attr inifile omnetpp.ini
attr iterationvars $0=300
attr iterationvars2 "$0=300, $repetition=69"
attr measurement $0=300
attr network Toll_road
attr processid 59596
attr repetition 69
attr replication #69
attr resultdir results
attr runnumber 1169
attr seedset 1169
param **.numBooths 3
param **.queue[*].serviceTime exponential(5.11s)
param **.source.interArrivalTime exponential(5.854s)
param **.source.numJobs 1000

vector 0  Toll_road.queue[0]  jobsProcessed:vector  ETV
attr interpolationmode  none
attr source  queueingTime
attr title  "jobs processed, vector"
vector 1  Toll_road.sink  lifeTime:vector  ETV
attr interpolationmode  none
attr title  "lifetime of arrived jobs, vector"
attr unit  s
0	3	8.073904749395	0
0	8	13.877347529828	0
0	12	14.344874000445	0.282422491329
0	18	15.271249070033	0
0	23	29.096834800553	0
0	28	31.082682251916	0
0	32	42.838612715517	4.494818309329
0	37	47.851046440277	2.134327101088
0	43	50.29005110987	0
0	48	57.504082199859	0
0	53	60.453299614708	0
0	58	66.900263728168	0
0	63	101.065731956754	0
0	67	105.527776385357	3.400962443844
0	73	128.567471927712	0
0	78	137.325159994242	0
0	83	146.889545470886	0
0	88	157.628422819839	0
0	93	168.262697411848	0
0	98	170.106783377104	0
0	103	184.509078463113	0
0	110	197.679489291185	11.969712562195
0	112	197.982049675421	2.763270051964
0	118	205.251959300795	0
0	122	206.283580692049	0.277626768838
0	128	212.486423664421	0
0	133	220.250572097161	0
0	138	239.448462423837	0
0	143	240.993171502099	0
0	150	246.535556879643	3.863469439058
0	155	248.326786071868	2.436199171055
0	157	248.973795222186	2.292547551283
0	163	259.804266702273	0
0	167	266.224315388847	4.712737369327
0	173	274.641965670977	0
0	180	289.340878799289	8.178514648393
0	185	297.188640298141	12.74386872905
0	193	304.969512234413	15.360367138677
0	201	310.932268605619	8.036558743067
0	203	312.123960822168	7.210386861372
0	211	318.717749285045	12.443719743222
0	213	323.483977371454	15.388659587584
0	221	339.716162385159	23.650439802252
0	226	340.900432904784	24.392233707379
0	234	352.282698894199	22.323994021157
0	245	358.371228806578	21.14453336404
0	256	362.431382429548	21.73326891195
0	258	370.406656941299	27.961100920956
0	260	370.895591612655	27.6849351853
0	271	390.353516035113	36.957107721881
0	276	392.586708759157	37.481028859264
0	278	398.004745850881	42.607953103292
0	286	408.540170878349	47.784393482358
0	294	418.155864445727	56.038504126987
0	296	419.804997473406	57.519803634572
0	298	421.558165392235	44.508810427055
0	300	428.587207160916	50.030974766906
0	302	428.955105665904	43.118940034344
0	304	434.690639910268	42.792483956045
0	309	442.73102066662	37.737047024416
0	311	444.613924199766	36.440851523245
0	316	446.988781644347	37.395960406099
0	318	454.544973793493	44.041014957743
0	320	460.134171010882	22.619980932274
0	325	464.459875782332	19.332612448802
0	327	466.52082632958	4.525781163703
0	332	473.411439461913	4.821718608787
0	338	476.569360572703	0
0	348	496.016157750953	17.827621055638
0	350	497.208508289419	14.603542484527
0	352	499.349369513002	3.924678432068
0	358	514.043110658382	0
0	363	525.86920780669	0
0	368	531.070712144682	0
0	373	541.512800855839	0
0	380	548.850716539938	2.290457483718
0	382	555.000954323298	8.143415298613
0	388	557.899963687982	0
0	393	561.073597205921	0
0	398	565.553312195937	0
0	411	575.110377719186	5.775917635231
0	416	576.168712172017	6.414722686439
0	421	577.307507370768	4.964931602119
0	423	580.918169579663	7.497111291408
0	425	583.911100011782	8.730807183665
0	433	593.533595053841	16.603803100015
0	438	601.757235303689	17.73737332381
0	443	609.284039920147	23.766154324508
0	457	627.081901731467	32.681562721753
0	462	633.202170476523	24.89541519601
0	464	634.182455862987	21.512127126136
0	466	643.702392282838	30.754015318413
0	468	644.997556528532	28.270649282365
0	479	658.434601774233	35.509385107387
0	481	661.416292385198	32.754510193111
0	483	668.953274294205	22.936589066383
0	491	675.37349798869	25.759897592819
0	493	679.164700694034	23.145619011622
0	498	684.254892371043	11.289922810107
0	500	687.430679671069	12.738549066036
0	502	687.606069833223	5.444626346866
0	510	694.133566650844	6.510723739136
0	518	701.876092530614	11.054632095996
0	529	709.465198116858	13.316602832264
0	531	712.771322962855	12.206766824717
0	533	720.574865173227	16.862213852788
0	538	722.841731128801	15.860869257794
0	540	729.8988062376	22.303941460778
0	548	735.907699908692	15.146916007752
0	550	742.232909888351	10.167902366247
0	555	742.558850047911	7.422502428507
0	560	752.168283550797	9.684539591036
0	565	763.438477933715	18.60002039436
0	570	770.272159307946	17.45657022456
0	572	772.362046873012	2.738751554595
0	578	778.867484292412	0
0	606	803.932694731798	24.516179766802
0	608	811.55970054847	32.011849217454
0	610	814.297762998935	33.652016900951
0	612	814.439994991461	31.416581316108
0	620	829.039534778411	44.337004954966
0	622	832.55540735607	35.593786717147
0	630	843.046064337237	41.251445825191
0	638	846.984867958662	44.374608763394
0	640	847.130570715506	43.783396487038
0	642	847.27032136473	30.435958608506
0	644	849.318363360326	29.542279397063
0	652	856.516508074886	21.011721628539
0	657	858.200265023113	15.985026911319
0	662	863.29681107654	19.502868162996
0	670	871.500454489061	25.832776060896
0	675	874.054134255379	23.599133045077
0	677	874.449171352648	23.446833101386
0	682	876.966701421017	19.674565660848
0	684	880.350411349644	20.801926973103
0	686	884.904765549605	20.450220400185
0	691	885.778683816027	18.179933959901
0	693	888.468710806723	14.667908601373
0	695	889.754172432347	14.434280829451
0	703	896.86203122929	11.34819298184
0	708	900.076744728138	5.815332923887
0	713	906.429153765107	11.636684457934
0	718	908.445653327547	9.110366172329
0	720	910.990462991664	7.952671605708
0	725	913.306817751997	6.142997394004
0	727	914.625309344683	2.999868331781
0	733	918.809793598876	0
0	738	922.312582724958	0
0	742	923.274517062567	0.193902392141
0	748	934.24483783423	0
0	753	946.561263862139	0
0	757	950.740805595895	0.702260563983
0	765	967.552546834914	11.065063331883
0	767	968.39344183777	10.659994002512
0	773	988.152929461923	0
0	777	995.056178983577	2.091094655876
0	783	996.513593370299	0
0	787	1008.088891779285	9.704338712748
0	793	1012.473365352529	0
0	798	1031.771126919575	0
0	808	1053.886051759834	7.237722303686
0	816	1057.963856599405	7.9066680354
0	818	1061.605230825761	11.124738973015
0	820	1065.219438907235	9.400558353095
0	825	1069.305518588169	11.699748723079
0	833	1079.105500550975	11.206183439327
0	835	1079.31453257825	1.987882065894
0	852	1095.901785654928	18.057656116711
0	857	1098.577596172484	16.073946207137
0	859	1099.110536542837	15.982632580764
0	861	1101.652305725	15.338803256978
0	863	1103.698151415438	14.013873528768
0	868	1108.217285969643	17.237791975279
0	876	1112.591209558058	16.684541555181
0	881	1120.106241167342	16.178091486754
0	883	1122.09328512789	12.878740449068
0	888	1127.339152948246	17.529005173239
0	890	1127.715967731363	13.51856828426
0	892	1134.312464090241	7.50786624176
0	898	1159.815676644367	0
0	902	1167.408254086311	0.352882411195
0	913	1179.155155075227	8.834291274613
0	921	1187.791723863736	17.427677502868
0	923	1187.897705918587	13.482186900656
0	928	1189.256581857672	6.581628404283
0	933	1190.498319899209	2.934317184099
0	941	1197.65080446013	8.443014101596
0	949	1204.826375324912	14.516105519649
0	951	1205.013221194462	13.220137612948
0	956	1208.707517011667	12.585797830025
0	958	1208.97138101055	9.425181629565
0	963	1217.17367882261	17.033842645103
0	968	1221.058492360423	15.034089366397
0	970	1228.154736200271	16.151395706053
0	972	1231.765852748035	13.775122112397
0	977	1233.667542329627	0.430797779433
0	983	1241.917865045686	0
0	990	1245.106538252978	2.872361967206
0	995	1245.910157735527	2.281093435956
0	997	1248.810130883452	3.27474031688
0	1002	1258.647790482018	1.842955520694
0	1008	1260.577730900643	0
0	1015	1264.555110608629	3.341557360717
0	1017	1264.637354608131	1.377740176693
0	1025	1269.666169597922	4.67471228395
0	1027	1271.99794556104	5.31898446407
0	1033	1282.339604961973	0
0	1038	1284.665969203472	0
0	1045	1289.201349040744	4.433008760449
0	1050	1309.731356262874	23.221554048322
0	1055	1312.51970058941	2.934328438229
0	1060	1314.938532794895	4.760520152057
0	1062	1315.877479602955	3.327251699955
0	1079	1328.026930736963	11.861760604684
0	1081	1331.031419401599	11.328467910152
0	1086	1337.642440856783	16.109758304915
0	1094	1353.255565257236	29.273222051783
0	1096	1353.50694099712	25.690099080258
0	1098	1354.787186795038	18.384144887531
0	1103	1356.684088397323	16.930741295205
0	1105	1356.769408110274	12.527985174336
0	1110	1364.084873619201	8.360549048957
0	1115	1369.044350610376	7.224503486651
0	1120	1375.361457442744	6.789279469682
0	1134	1380.610074042281	7.621130528653
0	1136	1384.26462899681	8.860526848724
0	1144	1397.324532423727	20.025883956893
0	1146	1404.011327224577	23.926871596965
0	1148	1407.64680165029	27.28854821174
0	1153	1411.244936317009	25.444433185181
0	1155	1412.849276808932	24.004202177604
0	1157	1413.823005639995	4.912219942419
0	1163	1419.133607765671	0
0	1168	1425.115950503461	0
0	1173	1442.269945273724	0
0	1183	1457.919223852141	9.103728579316
0	1185	1460.341087839913	10.683933172627
0	1196	1467.771531262537	18.022831782869
0	1198	1471.168936380592	10.142097252124
0	1200	1471.356425424144	8.133613876044
0	1205	1473.306534383759	7.653123022546
0	1210	1478.282108927195	6.248802037432
0	1215	1480.491646389132	5.7097383312
0	1229	1502.86453452456	23.709620800366
0	1231	1503.023014503408	21.39108296815
0	1233	1509.798703159737	25.237339272577
0	1235	1516.091401828241	24.500177161288
0	1237	1521.794478449845	22.92175360874
0	1245	1524.257173292966	1.454082164161
0	1247	1524.606932540607	0.862064663749
0	1258	1532.839165709864	7.900467875519
0	1263	1535.933189462798	4.301136605314
0	1268	1541.130759763507	8.395853037965
0	1273	1564.852658808919	30.477319324577
0	1275	1569.135107077195	29.079958385487
0	1277	1569.203042587258	23.581884026553
0	1283	1572.629115775879	0
0	1293	1587.226173720831	6.251278490659
0	1295	1587.766279299679	5.441447041938
0	1297	1589.47104774659	6.646845156255
0	1302	1599.079430730139	3.467479613812
0	1308	1602.601130873449	0
0	1312	1608.155435734301	0.631087034716
0	1318	1615.753094683847	0
0	1322	1623.967283622349	1.037662745133
0	1327	1625.352028612177	0.751447221931
0	1333	1627.866185467156	0
0	1338	1638.685790342462	0
0	1342	1646.973710068199	3.136095869456
0	1350	1656.968393326314	3.739349708244
0	1352	1657.400383704476	3.677646631343
0	1357	1660.456411334672	1.655619745122
0	1362	1663.313438626541	2.587000890061
0	1367	1666.379996661005	0.514768343722
0	1373	1674.930503469861	0
0	1378	1694.922877016568	0
0	1383	1708.23857265448	0
0	1390	1713.525105102494	3.027417560107
0	1392	1716.665008278469	4.026560759691
0	1398	1721.362017924619	0
0	1403	1730.378779821204	0
0	1408	1746.408575779382	0
0	1412	1757.493836942369	3.103776968489
0	1418	1770.178487115931	0
0	1423	1774.738711814548	0
0	1427	1786.104224154812	4.953948948961
0	1433	1787.433695036046	0
0	1438	1788.948408208119	0
0	1443	1798.757686167795	0
0	1448	1803.702321156964	0
0	1452	1810.755604012148	2.499064851312
0	1458	1848.873972783389	0
0	1462	1852.451863796042	2.642758927202
0	1470	1861.994928932038	5.834183623004
0	1478	1877.802535712039	21.332894054312
0	1480	1885.683044418039	20.309146758718
0	1488	1893.537148167724	23.789029500968
0	1493	1896.823477437338	10.723521236005
0	1495	1900.977494616257	10.627771815257
0	1497	1904.768162054978	8.389383024
1	5	12.717905871516	4.644001122121
1	13	14.344874000445	0.467526470617
1	15	14.358709103666	0.29625759455
1	20	21.601958137411	6.330709067378
1	25	30.132311876639	1.035477076086
1	33	42.838612715517	11.755930463601
1	38	47.851046440277	9.507252034089
1	40	47.987608504558	2.270889165369
1	45	50.775043069709	0.484991959839
1	50	58.990105418188	1.486023218329
1	55	64.396682307861	3.943382693153
1	60	72.897759321677	5.997495593509
1	68	105.527776385357	4.462044428603
1	70	108.461765481827	6.334951540314
1	75	136.009012103968	7.441540176256
1	80	141.218785083113	3.893625088871
1	85	147.441658515839	0.552113044953
1	90	162.146508414808	4.518085594969
1	95	169.945401084035	1.682703672187
1	100	179.251338981244	9.14455560414
1	111	197.679489291185	13.170410828072
1	113	197.982049675421	12.272272946431
1	115	202.941780542382	7.723000918925
1	123	206.283580692049	1.031621391254
1	125	206.549749258321	0.54379533511
1	130	215.016473806898	2.530050142477
1	135	220.811193700036	0.560621602875
1	140	239.609899294319	0.161436870482
1	151	246.535556879643	5.542385377544
1	156	248.326786071868	5.654698631283
1	158	248.973795222186	3.083208321373
1	160	254.516350131605	7.835102460702
1	168	266.224315388847	6.420048686574
1	170	270.940533375786	9.428955356266
1	181	289.340878799289	14.698913128312
1	186	297.188640298141	16.026276147245
1	194	304.969512234413	20.524740665322
1	202	310.932268605619	21.323123509883
1	204	312.123960822168	9.228250959616
1	212	318.717749285045	13.804175324249
1	214	323.483977371454	17.209947829631
1	222	339.716162385159	31.620844601289
1	227	340.900432904784	24.834710321877
1	235	352.282698894199	35.774499696794
1	246	358.371228806578	28.412523933536
1	257	362.431382429548	25.20468698701
1	259	370.406656941299	29.708543423701
1	261	370.895591612655	28.450035592312
1	272	390.353516035113	47.142859607758
1	277	392.586708759157	39.190300445925
1	279	398.004745850881	42.899065950988
1	287	408.540170878349	53.14337813076
1	295	418.155864445727	57.400087049736
1	297	419.804997473406	57.687637154666
1	299	421.558165392235	59.272971553401
1	301	428.587207160916	51.537852195736
1	303	428.955105665904	50.398873271894
1	305	434.690639910268	48.854474278708
1	310	442.73102066662	50.832864712397
1	312	444.613924199766	39.619950557562
1	317	446.988781644347	38.815708967826
1	319	454.544973793493	44.952152555245
1	321	460.134171010882	49.630212175132
1	326	464.459875782332	26.945685703724
1	328	466.52082632958	21.39356299605
1	333	473.411439461913	11.416394296036
1	335	476.27155737995	7.681836526824
1	349	496.016157750953	19.44679717825
1	351	497.208508289419	19.019971594104
1	353	499.349369513002	16.74440370811
1	355	504.484534514495	9.059843433561
1	360	522.287209640568	8.244098982186
1	365	527.838607840574	1.969400033884
1	370	540.492270844369	9.421558699687
1	381	548.850716539938	7.337915684099
1	383	555.000954323298	8.440695267078
1	385	556.445614035077	9.588075010392
1	390	560.138789501303	2.238825813321
1	395	563.918150189228	2.844552983307
1	412	575.110377719186	9.557065523249
1	417	576.168712172017	6.834252088062
1	422	577.307507370768	7.55351788519
1	424	580.918169579663	8.575593811014
1	426	583.911100011782	10.490041723527
1	434	593.533595053841	18.353302225724
1	439	601.757235303689	24.827443349863
1	444	609.284039920147	25.264177940268
1	458	627.081901731467	41.564016135828
1	463	633.202170476523	38.801831466809
1	465	634.182455862987	25.875700582474
1	467	643.702392282838	31.032063545987
1	469	644.997556528532	32.049179564107
1	480	658.434601774233	41.707694528066
1	482	661.416292385198	38.491075718352
1	484	668.953274294205	40.291492102118
1	492	675.37349798869	29.356812760868
1	494	679.164700694034	29.551100298163
1	499	684.254892371043	28.235810688631
1	501	687.430679671069	14.465710110133
1	503	687.606069833223	12.91393922819
1	511	694.133566650844	11.972123164487
1	519	701.876092530614	14.253249618906
1	530	709.465198116858	18.64373768224
1	532	712.771322962855	16.622727678261
1	534	720.574865173227	20.010309035089
1	539	722.841731128801	19.129079808362
1	541	729.8988062376	22.917944366593
1	549	735.907699908692	28.31283513187
1	551	742.232909888351	21.472125987411
1	556	742.558850047911	10.493842525807
1	561	752.168283550797	17.031935931393
1	566	763.438477933715	20.954733973954
1	571	770.272159307946	25.433701768591
1	573	772.362046873012	19.546457789626
1	575	775.039474849477	5.41617953106
1	607	803.932694731798	25.065210439386
1	609	811.55970054847	32.143185583474
1	611	814.297762998935	34.749911667919
1	613	814.439994991461	33.794248893477
1	621	829.039534778411	46.016121103058
1	623	832.55540735607	47.852877532625
1	631	843.046064337237	46.084443698314
1	639	846.984867958662	45.190249446616
1	641	847.130570715506	44.520311520238
1	643	847.27032136473	43.923147136262
1	645	849.318363360326	32.484000604102
1	653	856.516508074886	36.740424111623
1	658	858.200265023113	22.695478576766
1	663	863.29681107654	21.081572964746
1	671	871.500454489061	27.706511575517
1	676	874.054134255379	28.386455827214
1	678	874.449171352648	23.994170142346
1	683	876.966701421017	25.964363169755
1	685	880.350411349644	23.058275589475
1	687	884.904765549605	25.356281173064
1	692	885.778683816027	21.324138666607
1	694	888.468710806723	20.869960950597
1	696	889.754172432347	15.953370226997
1	704	896.86203122929	21.542139626394
1	709	900.076744728138	14.562906480688
1	714	906.429153765107	12.167741960856
1	719	908.445653327547	13.653184020374
1	721	910.990462991664	11.655175836446
1	726	913.306817751997	10.269026366041
1	728	914.625309344683	7.46148898669
1	730	916.152102711739	4.526661698837
1	735	921.639442376284	2.829648777408
1	743	923.274517062567	0.961934337609
1	745	924.811439775356	1.73082510493
1	750	936.679138348097	2.434300513867
1	758	950.740805595895	4.179541733756
1	766	967.552546834914	17.514001803002
1	768	968.39344183777	11.905958334739
1	770	976.69554096262	18.962093127362
1	778	995.056178983577	6.903249521654
1	780	995.71405669061	2.748972362909
1	788	1008.088891779285	11.575298408986
1	790	1010.450707054065	12.066153987528
1	795	1012.687698445291	0.214333092762
1	809	1053.886051759834	22.114924840259
1	817	1057.963856599405	11.315527143257
1	819	1061.605230825761	11.548042261756
1	821	1065.219438907235	14.738947054489
1	826	1069.305518588169	13.486638034029
1	834	1079.105500550975	21.499730685885
1	836	1079.31453257825	11.415215466602
1	853	1095.901785654928	18.575135142572
1	858	1098.577596172484	20.733466634267
1	860	1099.110536542837	16.60688657749
1	862	1101.652305725	18.524401762927
1	864	1103.698151415438	17.384648947416
1	869	1108.217285969643	18.533008082973
1	877	1112.591209558058	21.611715563694
1	882	1120.106241167342	24.199573164465
1	884	1122.09328512789	18.165135447302
1	889	1127.339152948246	18.124608269424
1	891	1127.715967731363	17.905819956356
1	893	1134.312464090241	20.115064643138
1	895	1141.202127838614	14.397529990133
1	903	1167.408254086311	7.592577441944
1	914	1179.155155075227	12.099783400111
1	922	1187.791723863736	17.470860063122
1	924	1187.897705918587	17.533659557719
1	929	1189.256581857672	14.841062839741
1	934	1190.498319899209	7.82336644582
1	942	1197.65080446013	10.08680174502
1	950	1204.826375324912	15.618584966378
1	952	1205.013221194462	14.702951389199
1	957	1208.707517011667	16.914433430153
1	959	1208.97138101055	12.849661828908
1	964	1217.17367882261	17.627479441625
1	969	1221.058492360423	20.918656182916
1	971	1228.154736200271	22.130333206245
1	973	1231.765852748035	19.762512253817
1	978	1233.667542329627	15.676811693989
1	980	1238.439328966124	5.20258441593
1	991	1245.106538252978	3.188673207292
1	996	1245.910157735527	3.675981449755
1	998	1248.810130883452	5.181066583881
1	1003	1258.647790482018	13.112399915446
1	1005	1260.098667027777	3.293832066453
1	1016	1264.555110608629	3.977379707986
1	1018	1264.637354608131	3.423801360219
1	1026	1269.666169597922	6.406555166484
1	1028	1271.99794556104	7.006488247068
1	1030	1276.736111489171	10.057150392201
1	1035	1283.305057417297	0.965452455324
1	1046	1289.201349040744	4.535379837272
1	1051	1309.731356262874	24.963015982579
1	1056	1312.51970058941	26.009898374858
1	1061	1314.938532794895	5.353160643714
1	1063	1315.877479602955	5.699466960117
1	1080	1328.026930736963	15.476702833963
1	1082	1331.031419401599	14.86624926932
1	1087	1337.642440856783	17.939489365336
1	1095	1353.255565257236	31.722882705368
1	1097	1353.50694099712	29.524597791667
1	1099	1354.787186795038	26.970344878176
1	1104	1356.684088397323	20.281046489816
1	1106	1356.769408110274	17.016061008156
1	1111	1364.084873619201	19.843450683263
1	1116	1369.044350610376	13.320026040132
1	1121	1375.361457442744	13.541610319019
1	1135	1380.610074042281	12.037896069219
1	1137	1384.26462899681	11.275685483182
1	1145	1397.324532423727	21.920430275641
1	1147	1404.011327224577	26.712678757743
1	1149	1407.64680165029	27.562346022678
1	1154	1411.244936317009	30.886682878459
1	1156	1412.849276808932	27.048773677104
1	1158	1413.823005639995	24.977931008667
1	1160	1414.846116036099	5.935330338523
1	1165	1421.362072488123	2.228464722452
1	1170	1429.358257390424	4.242306886963
1	1184	1457.919223852141	15.649278578417
1	1186	1460.341087839913	11.525592567088
1	1197	1467.771531262537	18.114376595251
1	1199	1471.168936380592	21.420236900924
1	1201	1471.356425424144	10.329586295676
1	1206	1473.306534383759	10.083722835659
1	1211	1478.282108927195	12.628697565982
1	1216	1480.491646389132	8.458339499369
1	1230	1502.86453452456	28.082626466628
1	1232	1503.023014503408	23.868100779214
1	1234	1509.798703159737	28.166771624479
1	1236	1516.091401828241	31.530037941081
1	1238	1521.794478449845	30.203253782892
1	1246	1524.257173292966	25.384448451861
1	1248	1524.606932540607	1.803841411802
1	1259	1532.839165709864	9.094297833006
1	1264	1535.933189462798	10.994491628453
1	1269	1541.130759763507	9.498706906023
1	1274	1564.852658808919	32.117752083377
1	1276	1569.135107077195	34.759767592853
1	1278	1569.203042587258	29.14789389555
1	1280	1571.415915949735	25.79475738903
1	1294	1587.226173720831	14.597057944952
1	1296	1587.766279299679	6.791384069507
1	1298	1589.47104774659	7.146215488849
1	1303	1599.079430730139	16.255228139804
1	1305	1599.421480694284	3.809529577957
1	1313	1608.155435734301	5.554304860852
1	1315	1609.247596255262	1.723247555677
1	1323	1623.967283622349	8.214188938502
1	1328	1625.352028612177	2.422407734961
1	1330	1626.408965176834	1.808383786588
1	1335	1630.578209921098	2.712024453942
1	1343	1646.973710068199	8.287919725737
1	1351	1656.968393326314	13.130779127571
1	1353	1657.400383704476	4.171340086406
1	1358	1660.456411334672	6.733674261539
1	1363	1663.313438626541	4.512647036991
1	1368	1666.379996661005	5.653558924525
1	1370	1669.191132576838	3.325904259555
1	1375	1683.663227935039	8.732724465178
1	1380	1696.527441335807	1.604564319239
1	1391	1713.525105102494	5.286532448014
1	1393	1716.665008278469	6.167320736082
1	1395	1717.776639770861	5.138192252083
1	1400	1723.15070939663	1.788691472011
1	1405	1734.134299077521	3.755519256317
1	1413	1757.493836942369	11.085261162987
1	1415	1769.710688436892	15.320628463012
1	1420	1771.950528459949	1.772041344018
1	1428	1786.104224154812	11.365512340264
1	1430	1786.879534664534	5.729259458683
1	1435	1787.830696886322	0.397001850276
1	1440	1795.944459182967	6.996050974848
1	1445	1802.524573323268	3.766887155473
1	1453	1810.755604012148	7.053282855184
1	1455	1816.950644852699	8.694105691863
1	1463	1852.451863796042	3.577891012653
1	1471	1861.994928932038	12.185824063198
1	1479	1877.802535712039	21.641790403005
1	1481	1885.683044418039	29.213402760312
1	1489	1893.537148167724	28.163250508403
1	1494	1896.823477437338	27.075358770582
1	1496	1900.977494616257	14.877538414924
1	1498	1904.768162054978	14.418439253978
1	1500	1906.43705198015	10.058272949172
