version 2
run Testbench_1-855-20170516-19:20:12-57976
attr configname Testbench_1
attr datetime 20170516-19:20:12
attr experiment Testbench_1
attr inifile omnetpp.ini
attr iterationvars $0=225
attr iterationvars2 "$0=225, $repetition=55"
attr measurement $0=225
attr network Toll_road
attr processid 57976
attr repetition 55
attr replication #55
attr resultdir results
attr runnumber 855
attr seedset 855
param **.numBooths 3
param **.queue[*].serviceTime exponential(5.11s)
param **.source.interArrivalTime exponential(5.854s)
param **.source.numJobs 1000

vector 0  Toll_road.queue[0]  jobsProcessed:vector  ETV
attr interpolationmode  none
attr source  queueingTime
attr title  "jobs processed, vector"
vector 1  Toll_road.sink  lifeTime:vector  ETV
attr interpolationmode  none
attr title  "lifetime of arrived jobs, vector"
attr unit  s
0	3	1.633384002073	0
0	7	9.834778938753	4.963184732898
0	13	10.941216026987	0
0	18	18.437566868373	0
0	22	22.414167840271	1.670516547214
0	27	31.926707632455	1.620865363874
0	33	40.011843677797	0
0	43	51.845920061453	10.961184182919
0	45	52.578651374118	1.754527065085
0	47	55.701681921189	4.141395990048
0	53	82.339841103362	0
0	58	91.308168769768	0
0	63	96.969469626365	0
0	67	109.171406704828	7.298441896963
0	72	116.649458497667	5.448353875847
0	78	135.230885367636	0
0	88	148.991711785012	13.203098442592
0	90	149.837090428679	8.950089874228
0	95	157.049673508049	14.041521052505
0	106	159.533339576737	5.474728840236
0	114	170.475569051003	13.353119690366
0	116	172.869907678565	13.808853264924
0	124	179.56510003521	20.330255329858
0	126	185.694138823923	17.59520574102
0	134	189.454856013441	19.657075862204
0	136	190.359848010823	16.628183347684
0	150	203.295456904921	27.103835396954
0	170	217.25662747235	30.79578006919
0	172	218.913029657412	31.338065325827
0	177	224.292994552821	30.961709421488
0	179	224.541449231869	29.382068651157
0	181	226.6690487764	29.055287582482
0	192	233.374609840503	33.041869172496
0	194	235.696178434889	32.069450867019
0	199	239.031613458088	30.001458736925
0	207	247.095090689811	35.564652182809
0	209	253.890334146953	39.676161426488
0	232	279.981033740916	65.155531741453
0	234	284.883323959305	69.933686482935
0	245	297.381353097457	77.379337348973
0	250	300.215293992073	71.378891223493
0	255	316.183037513662	86.96101028834
0	263	318.534486916781	85.731712923545
0	265	320.318026061521	83.768197743121
0	270	329.656998886506	85.184050517252
0	275	333.683514809862	88.881326412492
0	277	334.145885916232	78.720254935008
0	285	337.947931743252	80.270768361888
0	287	338.574468411756	79.405742011008
0	289	338.914665894766	66.116307866094
0	291	341.417164498779	67.373969751662
0	293	345.571315062176	66.83578645254
0	304	353.66943604903	74.213936286037
0	309	354.728695816463	65.458414270775
0	311	356.584509369155	66.168237402731
0	316	361.875152014363	69.603364912532
0	318	362.316243460687	64.009257872879
0	320	365.269389455885	60.245258947915
0	322	371.385112391849	53.385726369516
0	324	377.422085242911	59.324628016
0	332	379.670122811866	55.681487993659
0	337	384.389930568464	54.232103144776
0	339	384.676184759728	48.467432274886
0	341	390.299071362343	52.995659943138
0	355	400.563835164515	53.523054815052
0	357	406.68788063376	57.695799470095
0	362	415.955238917318	64.020037747299
0	364	416.262228123211	61.943672834735
0	369	416.676548309799	58.391465604158
0	371	418.853472815459	41.023833563583
0	373	422.896621435719	44.291228365423
0	375	424.370907188663	41.537125272112
0	380	429.576981014628	37.280448600929
0	382	430.117909690935	32.645412596323
0	399	441.435745356744	43.552591179135
0	407	455.769640840792	55.326692325519
0	412	459.809256015944	45.446937350705
0	414	464.025025934124	47.517066660413
0	431	478.923720603126	49.896368845473
0	433	479.896288880356	47.623473682626
0	441	484.28636086712	51.508764389993
0	458	492.821205490753	56.604748602032
0	469	497.447989144237	61.1562607832
0	471	498.80657464032	58.516740533703
0	473	500.534618825142	49.203686498071
0	475	504.486211590587	51.157893300908
0	483	511.999907315625	52.920526287648
0	497	519.182739112712	54.937611744721
0	499	520.889003910803	54.189373418079
0	504	532.844070764293	63.509626922304
0	512	537.295381635682	65.996724526599
0	523	547.960195579442	72.523163364885
0	525	548.271436975962	66.74079268689
0	527	549.809040834224	68.229813607347
0	529	564.303064360945	78.895378801662
0	531	565.615113184847	78.052952416523
0	539	572.630322499244	84.381069730753
0	547	577.848164311897	87.747857759039
0	552	580.049624378907	88.607237875624
0	554	584.925621459779	92.018989462801
0	556	587.947070302195	92.942101846366
0	558	589.143381177382	92.151371099032
0	560	595.64680211537	87.777624185687
0	562	596.726702842557	87.655493725683
0	567	598.726577804542	85.850592811722
0	572	600.251486207497	86.695300046164
0	574	605.759044202205	90.735656618791
0	579	610.050656365486	92.280765867336
0	581	617.80344469889	88.63524676507
0	583	623.166838786782	86.621233319577
0	585	626.223756637455	89.427241008149
0	587	626.937102306779	88.700157510383
0	592	628.642131625576	85.745655205673
0	600	634.580840546724	87.67016852626
0	617	642.774742996034	74.324587151647
0	619	644.778126246503	75.372452630295
0	621	645.835274823219	69.262647001546
0	623	652.050540791436	74.961024780083
0	631	663.933984636516	84.941147959569
0	633	664.881661252979	68.143390017977
0	647	676.110402196994	76.792044485657
0	649	677.786425525142	70.384098432649
0	672	696.621610964776	68.132951350718
0	674	699.253424671328	69.536279676719
0	676	700.462904054697	70.291977461784
0	678	709.808543688996	75.204833714812
0	692	725.755727362024	87.566401255985
0	694	728.317952758636	87.60578681483
0	702	730.152821287095	88.266793051807
0	704	735.07197662766	92.742394715532
0	709	742.184028181939	82.667155138125
0	711	742.453926438267	81.082321879967
0	722	752.146245156662	86.740675035703
0	727	752.844308999042	77.185820102479
0	729	760.808739818091	85.041868355088
0	731	763.851609489464	88.033852697154
0	736	784.468635155362	103.79789957161
0	738	786.588840204804	105.34121001217
0	740	790.088527000251	108.60027106895
0	742	790.313462165903	108.66850746893
0	744	790.548585831377	107.18450368981
0	758	805.358006843845	119.7896609247
0	760	806.845489496076	111.04278880267
0	765	808.29737258559	94.861757390551
0	773	815.873195137126	92.206977738402
0	781	829.454410661946	104.33639885204
0	783	832.082582538098	106.66446001641
0	791	837.357489386922	107.65592835169
0	793	839.313167761275	109.19916097912
0	798	842.016792564437	102.48449778079
0	800	844.871068713945	99.291256441591
0	802	847.083541622975	99.692096307322
0	807	856.723692000847	106.28718831647
0	809	856.895268459598	104.67801505782
0	811	860.603899064491	86.821452193724
0	819	871.918306451155	75.947029189357
0	824	883.222165539862	86.492014742329
0	826	883.780853361448	82.178821359795
0	831	888.276747991818	83.016361890545
0	833	889.502541029542	81.229860732099
0	835	899.905475397811	88.593228503284
0	840	907.231063262436	91.509543291909
0	845	913.151123844831	95.964851832041
0	847	913.310260582569	93.235303673228
0	855	919.765526267137	85.67883795236
0	857	922.612386661696	85.306302628874
0	862	923.479885922566	82.835250668699
0	864	925.051274354969	73.909613476777
0	866	929.296382161855	67.831727597341
0	868	934.261236349505	65.336444574337
0	876	941.645520352797	61.923243699445
0	884	946.856216900116	59.505281415072
0	886	948.903906870478	46.581957717088
0	891	952.342928649818	41.072517988958
0	896	955.123745820835	41.480724555484
0	907	968.166509275048	51.259271039666
0	909	973.58198113869	50.780508473835
0	911	976.937866488851	37.263338129406
0	916	981.164112467825	41.257212821735
0	921	986.441894590345	41.55701542189
0	932	996.43520788998	50.996288983278
0	943	1007.430465957919	57.812070200589
0	957	1019.608660093785	64.59482834531
0	959	1019.770310757652	56.768581059952
0	976	1041.324131553434	77.447762694943
0	987	1044.655556731319	76.950166578121
0	989	1050.600681348628	72.248837685565
0	994	1054.945597606275	71.935617137113
0	996	1055.156247134323	64.581680359764
0	998	1055.670112216171	63.507616630688
0	1003	1059.103345838005	64.138960808785
0	1008	1060.117778523935	63.353201071134
0	1013	1068.097652348932	69.850469544792
0	1015	1070.350084382453	71.026941700711
0	1017	1071.037069567467	61.993846943466
0	1019	1072.31852861216	62.07501477646
0	1021	1089.925222766195	79.095690613062
0	1029	1096.734409861716	82.045681096097
0	1031	1098.100384813098	77.655828545372
0	1036	1099.302457369878	76.826435770665
0	1038	1103.134743445245	80.012635265768
0	1040	1103.943418755613	71.241881058892
0	1042	1106.304803687431	70.74457340379
0	1047	1108.975107836359	66.657705340689
0	1049	1113.964123605864	71.522191040776
0	1051	1123.583143829718	79.629314535302
0	1059	1126.790183054657	76.027262974816
0	1064	1128.719288677869	71.041234422729
0	1072	1134.806274865563	75.288903296595
0	1080	1142.419009373159	80.740927602053
0	1082	1147.091986909984	55.675124982559
0	1084	1151.025112706711	58.625860946242
0	1086	1151.161852131124	51.986738646131
0	1091	1158.348610104525	50.055741447155
0	1093	1158.797719186748	34.584303866827
0	1095	1161.184845149288	36.268425619304
0	1097	1165.219949129719	38.398434503876
0	1105	1168.740211963003	39.664465419011
0	1107	1170.277158336138	40.297973097717
0	1113	1174.298762706681	39.37283832112
0	1115	1174.770982333159	33.691854713888
0	1117	1177.981195470703	20.495862159539
0	1119	1181.159870784181	14.863552190311
0	1121	1184.37117606065	17.352323340633
0	1123	1185.698683694096	15.064921072903
1	8	9.834778938753	8.20139493668
1	10	10.50025043911	5.628656233255
1	15	14.498774149344	3.557558122357
1	23	22.414167840271	3.976600971898
1	28	31.926707632455	11.183056339398
1	30	33.501188323942	3.195346055361
1	44	51.845920061453	11.834076383656
1	46	52.578651374118	11.693915495584
1	48	55.701681921189	4.877557612156
1	50	58.29971244222	6.739426511079
1	55	83.326436934236	0.986595830874
1	60	95.427622463498	4.11945369373
1	68	109.171406704828	12.201937078463
1	73	116.649458497667	14.776493689802
1	75	117.863323150657	6.662218528837
1	89	148.991711785012	13.760826417376
1	91	149.837090428679	14.048477086259
1	96	157.049673508049	16.162672953598
1	107	159.533339576737	16.525187121193
1	115	170.475569051003	16.416958314502
1	117	172.869907678565	15.747458317928
1	125	179.56510003521	20.504045621569
1	127	185.694138823923	26.459294118571
1	135	189.454856013441	21.355922930538
1	137	190.359848010823	20.562067859586
1	151	203.295456904921	29.563792241782
1	171	217.25662747235	41.065005964383
1	173	218.913029657412	32.452182254252
1	178	224.292994552821	36.718030221236
1	180	224.541449231869	31.210164100536
1	182	226.6690487764	31.509668195688
1	193	233.374609840503	35.760848646585
1	195	235.696178434889	35.363437766882
1	200	239.031613458088	35.404885890218
1	208	247.095090689811	38.064935968648
1	210	253.890334146953	42.359895639951
1	233	279.981033740916	65.766861020451
1	235	284.883323959305	70.057821959842
1	246	297.381353097457	82.431715621087
1	251	300.215293992073	80.213278243589
1	256	316.183037513662	87.346634745082
1	264	318.534486916781	89.312459691459
1	266	320.318026061521	87.515252068285
1	271	329.656998886506	93.107170568106
1	276	333.683514809862	89.210566440608
1	278	334.145885916232	89.343697518862
1	286	337.947931743252	82.522300762028
1	288	338.574468411756	80.897305030392
1	290	338.914665894766	79.745939494018
1	292	341.417164498779	68.618806470107
1	294	345.571315062176	71.528120315059
1	305	353.66943604903	74.933907439394
1	310	354.728695816463	75.27319605347
1	312	356.584509369155	67.314227823467
1	317	361.875152014363	71.458880047939
1	319	362.316243460687	70.044456358856
1	321	365.269389455885	66.962403868077
1	323	371.385112391849	66.360981883879
1	325	377.422085242911	59.422699220578
1	333	379.670122811866	61.572665584955
1	338	384.389930568464	60.401295750257
1	340	384.676184759728	54.51835733604
1	342	390.299071362343	54.090318877501
1	356	400.563835164515	63.26042374531
1	358	406.68788063376	59.647100284297
1	363	415.955238917318	66.963157753653
1	365	416.262228123211	64.327026953192
1	370	416.676548309799	62.357993021323
1	372	418.853472815459	60.568390109818
1	374	422.896621435719	45.066982183843
1	376	424.370907188663	45.765514118367
1	381	429.576981014628	46.743199098077
1	383	430.117909690935	37.821377277236
1	400	441.435745356744	43.963248262132
1	408	455.769640840792	57.886486663183
1	413	459.809256015944	59.366307500671
1	415	464.025025934124	49.662707268885
1	432	478.923720603126	62.415761329415
1	434	479.896288880356	50.868937122703
1	442	484.28636086712	52.01354566939
1	459	492.821205490753	60.043609013626
1	470	497.447989144237	61.231532255516
1	472	498.80657464032	62.514846279283
1	474	500.534618825142	60.244784718525
1	476	504.486211590587	53.155279263516
1	484	511.999907315625	58.671589025946
1	498	519.182739112712	60.103358084735
1	500	520.889003910803	56.643876542812
1	505	532.844070764293	66.144440271569
1	513	537.295381635682	67.960937793693
1	524	547.960195579442	76.661538470359
1	526	548.271436975962	72.834404761405
1	528	549.809040834224	68.278396545152
1	530	564.303064360945	82.723837134068
1	532	565.615113184847	80.207427625564
1	540	572.630322499244	85.06816173092
1	548	577.848164311897	89.598911543406
1	553	580.049624378907	89.949317826049
1	555	584.925621459779	93.483234956496
1	557	587.947070302195	95.040438305217
1	559	589.143381177382	94.138412721553
1	561	595.64680211537	98.65479203702
1	563	596.726702842557	88.857524912874
1	568	598.726577804542	89.655368687668
1	573	600.251486207497	87.375501214677
1	575	605.759044202205	92.202858040872
1	580	610.050656365486	95.027268782072
1	582	617.80344469889	100.03355420074
1	584	623.166838786782	93.998640852962
1	586	626.223756637455	89.67815117025
1	588	626.937102306779	90.140586677473
1	593	628.642131625576	90.40518682918
1	601	634.580840546724	91.684364126821
1	618	642.774742996034	95.86407097557
1	620	644.778126246503	76.327970402116
1	622	645.835274823219	76.429601207011
1	624	652.050540791436	75.477912969763
1	632	663.933984636516	86.844468625163
1	634	664.881661252979	85.888824576032
1	648	676.110402196994	79.372130961992
1	650	677.786425525142	78.468067813805
1	673	696.621610964776	89.219283872283
1	675	699.253424671328	70.76476505727
1	677	700.462904054697	70.745759060088
1	679	709.808543688996	79.637617096083
1	693	725.755727362024	91.15201738784
1	695	728.317952758636	90.128626652597
1	703	730.152821287095	89.440655343289
1	705	735.07197662766	93.185948392372
1	710	742.184028181939	99.854446269811
1	712	742.453926438267	82.937053394453
1	723	752.146245156662	90.774640598362
1	728	752.844308999042	87.438738878083
1	730	760.808739818091	85.150250921528
1	732	763.851609489464	88.084738026461
1	737	784.468635155362	108.65087836305
1	739	786.588840204804	105.91810462105
1	741	790.088527000251	108.84089680762
1	743	790.313462165903	108.8252062346
1	745	790.548585831377	108.9036311344
1	759	805.358006843845	121.99392470228
1	761	806.845489496076	121.27714357693
1	766	808.29737258559	112.49467189218
1	774	815.873195137126	102.43757994209
1	782	829.454410661946	105.78819326322
1	784	832.082582538098	106.96457072819
1	792	837.357489386922	111.93936686523
1	794	839.313167761275	109.61160672605
1	799	842.016792564437	111.90278578228
1	801	844.871068713945	105.3387739303
1	803	847.083541622975	101.50372935062
1	808	856.723692000847	109.33224668519
1	810	856.895268459598	106.45876477522
1	812	860.603899064491	108.38664566272
1	820	871.918306451155	98.135859580388
1	825	883.222165539862	87.250888278064
1	827	883.780853361448	87.050702563915
1	832	888.276747991818	86.674715990165
1	834	889.502541029542	84.242154928269
1	836	899.905475397811	91.632795100368
1	841	907.231063262436	95.918816367909
1	846	913.151123844831	97.429603874304
1	848	913.310260582569	96.123988569779
1	856	919.765526267137	99.690569357796
1	858	922.612386661696	88.525698346919
1	863	923.479885922566	86.173801889744
1	865	925.051274354969	84.406639101102
1	867	929.296382161855	78.154721283663
1	869	934.261236349505	72.796581784991
1	877	941.645520352797	72.720728577629
1	885	946.856216900116	67.133940246764
1	887	948.903906870478	61.552971385434
1	892	952.342928649818	50.020979496428
1	897	955.123745820835	43.853335159975
1	908	968.166509275048	54.523488009697
1	910	973.58198113869	56.674742903308
1	912	976.937866488851	54.136393823996
1	917	981.164112467825	41.48958410838
1	922	986.441894590345	46.534994944255
1	933	996.43520788998	51.550328721525
1	944	1007.430465957919	61.991547051217
1	958	1019.608660093785	69.990264336455
1	960	1019.770310757652	64.756479009177
1	977	1041.324131553434	78.322401855734
1	988	1044.655556731319	80.779187872828
1	990	1050.600681348628	82.89529119543
1	995	1054.945597606275	76.593753943212
1	997	1055.156247134323	72.146266665161
1	999	1055.670112216171	65.095545441612
1	1004	1059.103345838005	66.940850252522
1	1009	1060.117778523935	65.153393494715
1	1014	1068.097652348932	71.333074896131
1	1016	1070.350084382453	72.102901578313
1	1018	1071.037069567467	71.713926885725
1	1020	1072.31852861216	63.275305988159
1	1022	1089.925222766195	79.681708930495
1	1030	1096.734409861716	85.904877708583
1	1032	1098.100384813098	83.411656047479
1	1037	1099.302457369878	78.857901102152
1	1039	1103.134743445245	80.658721846032
1	1041	1103.943418755613	80.821310576136
1	1043	1106.304803687431	73.60326599071
1	1048	1108.975107836359	73.414877552718
1	1050	1113.964123605864	71.646721110194
1	1052	1123.583143829718	81.14121126463
1	1060	1126.790183054657	82.836353760241
1	1065	1128.719288677869	77.956368598028
1	1073	1134.806274865563	77.128220610423
1	1081	1142.419009373159	82.901637804191
1	1083	1147.091986909984	85.413905138878
1	1085	1151.025112706711	59.608250779286
1	1087	1151.161852131124	58.762600370655
1	1092	1158.348610104525	59.173496619532
1	1094	1158.797719186748	50.504850529378
1	1096	1161.184845149288	36.971429829367
1	1098	1165.219949129719	40.303529599735
1	1106	1168.740211963003	41.91869733716
1	1108	1170.277158336138	41.201411792146
1	1114	1174.298762706681	44.31957746826
1	1116	1174.770982333159	39.845057947598
1	1118	1177.981195470703	36.902067851432
1	1120	1181.159870784181	23.674537473017
1	1122	1184.37117606065	18.07485746678
1	1124	1185.698683694096	18.679830974079
1	1126	1187.769207684699	17.135445063506
