version 2
run Testbench_1-366-20170516-19:18:24-53980
attr configname Testbench_1
attr datetime 20170516-19:18:24
attr experiment Testbench_1
attr inifile omnetpp.ini
attr iterationvars $0=100
attr iterationvars2 "$0=100, $repetition=66"
attr measurement $0=100
attr network Toll_road
attr processid 53980
attr repetition 66
attr replication #66
attr resultdir results
attr runnumber 366
attr seedset 366
param **.numBooths 3
param **.queue[*].serviceTime exponential(5.11s)
param **.source.interArrivalTime exponential(5.854s)
param **.source.numJobs 1000

vector 0  Toll_road.queue[0]  jobsProcessed:vector  ETV
attr interpolationmode  none
attr source  queueingTime
attr title  "jobs processed, vector"
vector 1  Toll_road.sink  lifeTime:vector  ETV
attr interpolationmode  none
attr title  "lifetime of arrived jobs, vector"
attr unit  s
0	3	0.648363447818	0
0	7	10.629513317171	2.97948542847
0	21	21.299727022741	7.440758683126
0	32	29.923489570126	15.020933186162
0	34	31.117819476197	14.365572928179
0	42	34.978332163495	16.285591240092
0	44	35.545037251789	12.45771965465
0	46	37.522537287577	13.009543832212
0	48	44.812398047343	14.908137258813
0	50	47.965885334919	14.997908906283
0	52	54.65361105616	19.678130041291
0	58	75.773430611074	0
0	63	81.466663884248	0
0	70	95.175201823626	12.928677607117
0	72	95.662555057848	11.371099918745
0	77	109.890395559804	0.097581311618
0	94	121.312135375856	11.032507095262
0	96	121.442613703631	7.799923108801
0	104	129.139678640771	12.636158291259
0	106	130.912271376792	11.163370877598
0	108	131.623998941526	11.511654909881
0	113	139.005301966913	17.113742037714
0	121	143.51506244969	16.26964810001
0	129	152.059190295679	18.05667099612
0	131	153.187916541041	13.872341184774
0	139	155.745254095499	14.766706571053
0	141	156.771977305811	13.050837875522
0	143	157.349185699524	6.723006745213
0	145	158.184968102313	4.71641632773
0	147	161.945118688086	7.329278944329
0	153	162.808088470161	0
0	157	168.545842506728	0.855505517621
0	163	173.010387086344	0
0	167	176.159216180901	2.756998062435
0	178	188.178795708312	4.444279083311
0	180	191.814633712851	7.629115484829
0	182	192.566358141312	7.735825810976
0	187	197.104107998749	3.418949187058
0	192	201.202968171367	2.120787930298
0	197	203.796916876698	2.2887731062
0	202	206.336719839406	1.0411654639
0	208	209.01539575299	0
0	213	217.139162813256	0
0	217	222.500289051397	0.059303559058
0	228	231.030713842884	4.018534044503
0	230	231.064008145279	3.070912880953
0	235	240.362200905993	10.154034166081
0	237	240.975090323944	3.682153326133
0	242	243.234249706735	0.607211253043
0	248	266.655931103253	0
0	253	271.089979135389	0
0	257	274.34602246021	2.495774585318
0	262	276.811265348951	1.55480964961
0	270	294.171259478314	14.604128738847
0	272	295.789925569658	10.607127417454
0	277	301.59208329536	3.452108695045
0	282	310.827047339981	7.842683203088
0	288	313.496130998405	0
0	293	316.99994902829	0
0	321	345.849922004917	24.291695126582
0	323	346.105841390193	23.656116446849
0	325	349.373457544346	22.905397248293
0	330	353.346560766852	21.428759794613
0	335	358.862592875915	24.980098130612
0	340	366.645021120681	31.415281209585
0	357	387.461452769081	47.726788922737
0	359	389.518355910233	48.56179158191
0	364	391.762584690704	47.000927231029
0	369	394.776051424131	44.932106021576
0	371	395.845895481771	41.120941286093
0	373	397.966491074523	35.133800998193
0	375	402.80998380043	34.452862399405
0	380	407.917938210492	37.372740137984
0	382	408.432925773558	29.997901272584
0	384	409.616390681761	29.733031579077
0	389	421.322136562389	33.922776312499
0	391	421.423344923105	29.874872388703
0	396	429.271503806967	36.367169616939
0	398	429.695487458113	22.443371817611
0	403	440.901418854164	25.953152214774
0	417	447.283234919303	24.269075079853
0	425	453.999639240295	21.813472576258
0	427	454.456344895349	13.215821533541
0	429	454.901635574144	11.344549867502
0	434	458.089752284694	12.965313688727
0	439	463.424719879012	17.581017681893
0	444	469.712353524926	19.396130944076
0	449	470.824468835911	18.564910888219
0	451	470.843721072579	15.663488322715
0	453	472.980063205555	9.93930388256
0	458	478.622291467363	11.616579529074
0	463	487.403621077241	17.162089487506
0	471	492.363377362623	18.116140466397
0	473	492.438625216853	8.065706663276
0	478	494.407820423911	4.891365968313
0	483	500.245937471522	10.504255408261
0	485	500.549792926628	7.961654065098
0	487	500.979264511213	4.997520822887
0	493	515.813054673422	0
0	498	522.092677506743	0
1	8	10.629513317171	9.981149869353
1	22	21.299727022741	13.64969913404
1	33	29.923489570126	16.064521230511
1	35	31.117819476197	16.215263092233
1	43	34.978332163495	18.226085615477
1	45	35.545037251789	16.852296328386
1	47	37.522537287577	14.435219690438
1	49	44.812398047343	20.299404591978
1	51	47.965885334919	18.061624546389
1	53	54.65361105616	21.685634627524
1	55	55.705434436078	20.729953421209
1	60	79.101984456494	3.32855384542
1	71	95.175201823626	13.708537939378
1	73	95.662555057848	13.416030841339
1	78	109.890395559804	25.598940420701
1	95	121.312135375856	11.51932112767
1	97	121.442613703631	11.162985423037
1	105	129.139678640771	15.496988045941
1	107	130.912271376792	14.40875102728
1	109	131.623998941526	11.875098442332
1	114	139.005301966913	18.892957935268
1	122	143.51506244969	21.623502520491
1	130	152.059190295679	24.813775945999
1	132	153.187916541041	19.185397241482
1	140	155.745254095499	16.429678739232
1	142	156.771977305811	15.793429781365
1	144	157.349185699524	13.628046269235
1	146	158.184968102313	7.558789148002
1	148	161.945118688086	8.476566913503
1	150	162.752999544293	8.137159800536
1	158	168.545842506728	5.737754036567
1	160	169.004274431771	1.313937442664
1	168	176.159216180901	3.148829094557
1	179	188.178795708312	14.776577589846
1	181	191.814633712851	8.08011708785
1	183	192.566358141312	8.38083991329
1	188	197.104107998749	12.273575668413
1	193	201.202968171367	7.517809359676
1	198	203.796916876698	4.714736635629
1	203	206.336719839406	4.828576068908
1	205	207.207332004566	1.91177762906
1	210	211.035008039937	2.019612286947
1	218	222.500289051397	5.361126238141
1	229	231.030713842884	8.589728350545
1	231	231.064008145279	4.051828346898
1	236	240.362200905993	12.369105641667
1	238	240.975090323944	10.766923584032
1	243	243.234249706735	5.941312708924
1	245	246.840050509152	4.21301205546
1	250	266.740071831421	0.084140728168
1	258	274.34602246021	3.256043324821
1	263	276.811265348951	4.961017474059
1	271	294.171259478314	18.914803778973
1	273	295.789925569658	16.222794830191
1	278	301.59208329536	16.409285143156
1	283	310.827047339981	12.687072739666
1	285	312.258583042194	9.274218905301
1	290	314.32256003877	0.826429040365
1	322	345.849922004917	28.849972976627
1	324	346.105841390193	24.547614511858
1	326	349.373457544346	26.923732601002
1	331	353.346560766852	26.878500470799
1	336	358.862592875915	26.944791903676
1	341	366.645021120681	32.762526375378
1	358	387.461452769081	52.231712857985
1	360	389.518355910233	49.783692063889
1	365	391.762584690704	50.806020362381
1	370	394.776051424131	50.014393964456
1	372	395.845895481771	46.001950079216
1	374	397.966491074523	43.241536878845
1	376	402.80998380043	39.9772937241
1	381	407.917938210492	39.560816809467
1	383	408.432925773558	37.88772770105
1	385	409.616390681761	31.181366180787
1	390	421.322136562389	41.438777459705
1	392	421.423344923105	34.023984673215
1	397	429.271503806967	37.723031272565
1	399	429.695487458113	36.791153268085
1	404	440.901418854164	33.649303213662
1	418	447.283234919303	32.334968279913
1	426	453.999639240295	30.985479400845
1	428	454.456344895349	22.270178231312
1	430	454.901635574144	13.661112212336
1	435	458.089752284694	14.532666578052
1	440	463.424719879012	18.300281283045
1	445	469.712353524926	23.868651327807
1	450	470.824468835911	20.508246255061
1	452	470.843721072579	18.584163124887
1	454	472.980063205555	17.799830455691
1	459	478.622291467363	15.581532144368
1	464	487.403621077241	20.397909138952
1	472	492.363377362623	22.121845772888
1	474	492.438625216853	18.191388320627
1	479	494.407820423911	10.034901870334
1	484	500.245937471522	10.729483015924
1	486	500.549792926628	10.808110863367
1	488	500.979264511213	8.391125649683
1	490	503.171464354606	7.18972066628
1	495	515.928460868776	0.115406195354
1	500	526.652730707955	4.560053201212
