version 2
run Testbench_1-788-20170516-19:19:58-56520
attr configname Testbench_1
attr datetime 20170516-19:19:58
attr experiment Testbench_1
attr inifile omnetpp.ini
attr iterationvars $0=200
attr iterationvars2 "$0=200, $repetition=88"
attr measurement $0=200
attr network Toll_road
attr processid 56520
attr repetition 88
attr replication #88
attr resultdir results
attr runnumber 788
attr seedset 788
param **.numBooths 3
param **.queue[*].serviceTime exponential(5.11s)
param **.source.interArrivalTime exponential(5.854s)
param **.source.numJobs 1000

vector 0  Toll_road.queue[0]  jobsProcessed:vector  ETV
attr interpolationmode  none
attr source  queueingTime
attr title  "jobs processed, vector"
vector 1  Toll_road.sink  lifeTime:vector  ETV
attr interpolationmode  none
attr title  "lifetime of arrived jobs, vector"
attr unit  s
0	3	1.128494919158	0
0	8	2.489551590583	0
0	13	12.59456345711	0
0	17	32.031107263538	6.594929458992
0	31	41.050650629506	4.947972346131
0	36	47.472179543359	11.139578189203
0	38	48.601172522482	9.891529955602
0	58	70.228779175217	30.070197726683
0	60	74.821726828968	29.971482368006
0	62	76.232788944571	20.245999163665
0	64	78.332493266427	21.871940637797
0	66	80.348902362064	22.291411547569
0	68	83.198720107032	24.155021086931
0	70	83.262265743718	23.933345738475
0	78	90.864643484504	27.684520603757
0	83	97.75879017513	11.999829952688
0	85	98.966988413747	9.060591850536
0	87	101.098315039278	7.145789791513
0	95	110.046693841973	6.190794596285
0	100	115.094703958327	9.342996870367
0	102	116.488847832835	1.470870799122
0	113	131.658682615171	14.011426452088
0	115	132.513768408393	10.038691258608
0	120	134.176844697692	10.026565365885
0	122	137.980583127552	4.232462401572
0	127	148.145400646804	10.059576025146
0	133	162.162311481922	0
0	140	167.737068363454	1.354932626923
0	142	169.194105725282	1.982400454322
0	147	176.827035885021	1.764754972999
0	153	182.908593160561	0
0	157	183.156483107803	0.078621910549
0	163	190.249376693246	0
0	167	199.050675471967	7.275154674605
0	173	208.030192631691	0
0	177	219.881091956802	11.317167302448
0	182	221.243940279049	0.40442705134
0	190	245.772144331838	16.799910563029
0	198	249.251119833422	9.441905070178
0	200	253.310664748001	7.03914206226
0	202	256.951770272541	9.578995218444
0	207	258.528955175387	0.587541142115
0	213	268.88113610408	0
0	218	290.409638621241	0
0	222	294.718643049119	4.061211889316
0	228	313.285041085666	0
0	232	318.34405062792	2.013752555301
0	237	327.652567637591	8.797359087758
0	243	332.303201156688	0
0	248	334.469535776613	0
0	253	336.592534046231	0
0	258	343.810531473308	0
0	263	348.521256960676	0
0	270	354.784822736449	2.570310160606
0	284	373.286435050614	19.760952611555
0	301	387.220678116721	24.801795573017
0	303	388.088148223712	22.918031286062
0	311	397.44960557034	29.743636940848
0	316	412.188700390886	40.906439552867
0	318	414.537642187215	40.524154731912
0	320	415.840310413049	37.823456780373
0	322	416.072768727302	36.457856408831
0	324	422.330762370444	39.066236727478
0	326	422.425002781521	37.825995748989
0	334	426.145624716278	33.834856112823
0	336	426.369996988665	29.43978560557
0	338	429.609629265544	18.368728017051
0	340	432.96090124617	7.923387018942
0	345	438.415966961331	12.835733823731
0	347	438.822136135229	4.759484845425
0	353	447.114898238705	0
0	357	447.479868287565	0.269317768639
0	371	462.051985424339	10.741783606675
0	373	462.207232547122	7.059033413068
0	375	464.411509660245	7.962957773577
0	377	465.309150023705	6.301808213753
0	383	471.429509369206	0
0	388	474.486032735518	0
0	393	480.669364967427	0
0	397	488.431953937785	5.135991839896
0	402	494.272927319935	1.569705377767
0	408	506.256903219572	0
0	412	510.051906498365	3.071810148942
0	418	532.959915979843	0
0	423	538.343593400977	0
0	428	545.140615580376	0
0	432	545.546415523777	0.236199717299
0	437	552.505051749239	6.494397425539
0	443	560.493625859127	0
0	448	569.615286076631	0
0	453	573.7088808871	0
0	458	576.083151125239	0
0	462	582.944377491442	0.676860669431
0	468	583.536400483218	0
0	475	596.509838467622	11.993594858411
0	477	597.386913111941	5.308337801431
0	482	601.354299185102	3.190601234473
0	487	604.201376361604	0.801364140122
0	492	608.741672563173	1.692397572263
0	498	614.746095993635	0
0	502	620.147366009988	3.512986756967
0	508	642.406011409653	0
0	513	646.796611462795	0
0	518	653.231789510815	0
0	522	663.68005644283	7.704567006431
0	533	670.330463766309	6.437451891553
0	535	671.652564791874	4.976746213481
0	537	673.576368096352	6.822471532604
0	543	681.624910222829	0
0	550	690.294968546178	6.708722843448
0	552	690.550492791346	4.589635696989
0	557	696.565003275962	4.883416458606
0	562	700.978261338794	3.395384687413
0	568	743.065423483583	0
0	573	746.434547236737	0
0	578	755.492862192882	0
0	583	767.805907167695	0
0	588	769.110775714235	0
0	595	781.925722834203	12.733274310295
0	597	788.880663064907	13.190249743002
0	602	789.430449970845	0.432124509338
0	610	799.134578827702	4.01646879977
0	612	802.800010288438	7.561374195524
0	617	815.565942306729	1.178143419361
0	622	817.758197598944	1.42790066881
0	633	829.201464857967	8.241360643083
0	635	829.379310812105	5.726863222478
0	640	831.729255786154	5.361596463646
0	642	833.08868873854	3.245070626077
0	648	837.56879341835	0
0	661	859.213284575943	19.959504215954
0	669	864.0497995963	22.118578395353
0	671	864.270306584893	21.199896001553
0	673	864.756736087229	14.417480065637
0	675	865.944618761746	5.449884429156
0	680	868.641996362452	4.836232623086
0	685	876.44997637625	9.135360634524
0	690	880.604910305414	5.18188675967
0	692	880.633847619517	1.197390210729
0	697	891.707928094275	4.340199947262
0	703	903.537024006718	0
0	708	911.507801769449	0
0	712	921.171229913697	1.168451840696
0	718	922.632730266705	0
0	723	927.518509830299	0
0	728	932.715391624807	0
0	732	933.888366097672	1.03501906433
0	738	936.793955516438	0
0	743	939.31656443775	0
0	748	948.368279609347	0
0	753	951.55539374694	0
0	758	959.709069926495	0
0	768	965.541866431556	4.524714743834
0	770	966.452477108146	2.871920134883
0	775	968.027241978127	3.625883014366
0	777	968.233606366156	1.172208563245
0	782	972.452466475608	3.156569636173
0	790	978.286432331261	4.75422092957
0	795	979.411630690792	2.16352066139
0	797	979.903159816694	1.434142576927
0	802	983.11392569623	2.107473408303
0	807	990.876718106819	7.476307859937
0	813	995.152776590142	0
0	817	999.800228281198	0.844552384093
0	822	1008.144893655052	7.600989901646
0	833	1020.182764039237	9.839302152087
0	838	1021.502542494324	9.863670262797
0	843	1024.151890322457	8.343105665247
0	848	1044.560569762608	24.006309341845
0	853	1046.502512239182	23.834112414894
0	858	1049.346652787075	14.769742865814
0	863	1050.324713652353	5.292990586405
0	883	1065.979947561811	16.857395254079
0	885	1074.676976393594	24.63799043458
0	887	1077.950570322192	20.025131706173
0	895	1086.736450984936	28.207657198938
0	903	1091.106971320845	30.126672135193
0	908	1096.415826090885	35.118679538448
0	913	1101.271350081606	39.749235324839
0	915	1102.406338730306	38.023185115614
0	917	1104.905837101922	25.038195057282
0	919	1106.233691820255	21.003073866798
0	927	1111.345797908203	23.444523981873
0	932	1112.877837057783	23.388779604294
0	937	1123.982302069148	31.903973941262
0	942	1132.258101754536	33.335894226151
0	947	1140.635229041621	31.811870198751
0	952	1148.263094198543	37.097407032826
0	954	1149.151316911895	37.760565750638
0	956	1149.314896295636	28.247703781708
0	958	1152.03705933083	25.543121445661
0	963	1159.955480973806	21.486673595703
0	983	1176.770307461648	34.679252039313
0	985	1177.676966505064	20.92859456514
0	987	1182.392734472771	21.862899894749
0	990	1186.09928418676	22.624488321776
0	992	1190.433287243164	22.248256093937
0	994	1194.856827545157	24.49471634122
0	996	1195.146686971895	24.388930170829
0	998	1206.353770102367	30.603270654827
1	5	1.801072338863	0.672577419705
1	10	7.439419857633	4.94986826705
1	18	32.031107263538	19.436543806428
1	32	41.050650629506	15.61447282496
1	37	47.472179543359	11.369501259984
1	39	48.601172522482	12.268571168326
1	59	70.228779175217	31.519136608337
1	61	74.821726828968	34.663145380434
1	63	76.232788944571	31.382544483609
1	65	78.332493266427	22.345703485521
1	67	80.348902362064	23.888349733434
1	69	83.198720107032	25.141229292537
1	71	83.262265743718	24.218566723617
1	79	90.864643484504	31.535723479261
1	84	97.75879017513	34.578667294383
1	86	98.966988413747	13.208028191305
1	88	101.098315039278	11.191918476067
1	96	110.046693841973	16.094168594208
1	101	115.094703958327	11.238804712639
1	103	116.488847832835	10.737140744875
1	114	131.658682615171	16.640705581458
1	116	132.513768408393	14.86651224531
1	121	134.176844697692	11.701767547907
1	123	137.980583127552	13.830303795745
1	128	148.145400646804	14.397279920824
1	130	162.080542727407	23.994718105749
1	141	167.737068363454	5.574756881532
1	143	169.194105725282	2.811969988751
1	148	176.827035885021	9.615330614061
1	150	180.782702936432	5.72042202441
1	158	183.156483107803	0.247889947242
1	160	184.125579514924	1.04771831767
1	168	199.050675471967	8.801298778721
1	170	201.954027798877	10.178507001515
1	178	219.881091956802	11.850899325111
1	183	221.243940279049	12.680015624695
1	191	245.772144331838	24.932631104129
1	199	249.251119833422	20.278886064613
1	201	253.310664748001	13.501449984757
1	203	256.951770272541	10.6802475868
1	208	258.528955175387	11.15618012129
1	210	259.526092108684	1.584678075412
1	215	274.573897453274	5.692761349194
1	223	294.718643049119	4.309004427878
1	225	295.510008128527	4.852576968724
1	233	318.34405062792	5.059009542254
1	238	327.652567637591	11.322269564972
1	240	331.998391701596	13.143183151763
1	245	332.849917744366	0.546716587678
1	250	335.720689880791	1.251154104178
1	255	343.052444596642	6.459910550411
1	260	345.957655534346	2.147124061038
1	271	354.784822736449	6.263565775773
1	285	373.286435050614	21.071922474771
1	302	387.220678116721	33.695195677662
1	304	388.088148223712	25.669265680008
1	312	397.44960557034	32.27948863269
1	317	412.188700390886	44.482731761394
1	319	414.537642187215	43.255381349196
1	321	415.840310413049	41.826822957746
1	323	416.072768727302	38.055915094626
1	325	422.330762370444	42.715850051973
1	327	422.425002781521	39.160477138555
1	335	426.145624716278	41.546617683746
1	337	426.369996988665	34.05922838521
1	339	429.609629265544	32.679417882449
1	341	432.96090124617	21.719999997677
1	346	438.415966961331	13.378452734103
1	348	438.822136135229	13.241902997629
1	350	443.758959896435	9.696308606631
1	358	447.479868287565	0.36497004886
1	372	462.051985424339	14.841434905413
1	374	462.207232547122	10.897030729458
1	376	464.411509660245	9.263310526191
1	378	465.309150023705	8.860598137037
1	380	465.670761341107	6.663419531155
1	385	472.657613759767	1.228104390561
1	390	474.650795809402	0.164763073884
1	398	488.431953937785	7.762588970358
1	403	494.272927319935	10.976965222046
1	405	504.207007061828	11.50378511966
1	413	510.051906498365	3.795003278793
1	415	522.243588324187	15.263491974764
1	420	536.092837544546	3.132921564703
1	425	538.901802899694	0.558209498717
1	433	545.546415523777	0.405799943401
1	438	552.505051749239	7.194835942761
1	440	557.30906762009	11.29841329639
1	445	563.311946690434	2.818320831307
1	450	569.822800273438	0.207514196807
1	455	574.481710446389	0.772829559289
1	463	582.944377491442	6.861226366203
1	465	582.9827669181	0.715250096089
1	476	596.509838467622	12.973437984404
1	478	597.386913111941	12.87066950273
1	483	601.354299185102	9.275723874592
1	488	604.201376361604	6.037678410975
1	493	608.741672563173	5.341660341691
1	495	612.2047718659	5.15549687499
1	503	620.147366009988	5.401270016353
1	505	621.950996926684	5.316617673663
1	510	643.573268284875	1.167256875222
1	515	647.241333661568	0.444722198773
1	523	663.68005644283	10.448266932015
1	534	670.330463766309	14.35497432991
1	536	671.652564791874	7.759552917118
1	538	673.576368096352	6.900549517959
1	540	674.343479876901	7.589583313153
1	551	690.294968546178	8.670058323349
1	553	690.550492791346	6.964247088616
1	558	696.565003275962	10.604146181605
1	563	700.978261338794	9.296674521438
1	565	719.371739512526	21.788862861145
1	570	743.727080316105	0.661656832522
1	575	752.129539360731	5.694992123994
1	580	756.233912511436	0.741050318554
1	585	768.139612486582	0.333705318887
1	596	781.925722834203	12.814947119968
1	598	788.880663064907	19.688214540999
1	603	789.430449970845	13.74003664894
1	611	799.134578827702	10.136253366195
1	613	802.800010288438	7.681900260506
1	618	815.565942306729	20.327306213815
1	623	817.758197598944	3.370398711576
1	634	829.201464857967	12.871167927833
1	636	829.379310812105	8.419206597221
1	641	831.729255786154	8.076808196527
1	643	833.08868873854	6.721029416032
1	645	836.310743778125	6.467125665662
1	662	859.213284575943	21.644491157593
1	670	864.0497995963	24.796019236311
1	672	864.270306584893	22.339085383946
1	674	864.756736087229	21.686325503889
1	676	865.944618761746	15.605362740154
1	681	868.641996362452	8.147262029862
1	686	876.44997637625	12.644212636884
1	691	880.604910305414	13.290294563688
1	693	880.633847619517	5.210824073773
1	698	891.707928094275	12.271470685487
1	700	894.260347366914	6.892619219901
1	705	904.869227058866	1.332203052148
1	713	921.171229913697	9.663428144248
1	715	921.290087437883	1.287309364882
1	720	925.772461686496	3.139731419791
1	725	930.678344936461	3.159835106162
1	733	933.888366097672	1.172974472865
1	735	934.411573716985	1.558226683643
1	740	938.79619887805	2.002243361612
1	745	940.004361679144	0.687797241394
1	750	949.184914665545	0.816635056198
1	755	954.202493338291	2.647099591351
1	769	965.541866431556	5.832796505061
1	771	966.452477108146	5.435325420424
1	776	968.027241978127	4.446685004864
1	778	968.233606366156	3.832247402395
1	783	972.452466475608	5.391068672697
1	791	978.286432331261	8.990535491826
1	796	979.411630690792	5.879419289101
1	798	979.903159816694	2.655049787292
1	803	983.11392569623	4.644908456463
1	808	990.876718106819	9.870265818892
1	810	990.980817294069	7.580407047187
1	818	999.800228281198	4.647451691056
1	823	1008.144893655052	9.189217757947
1	834	1020.182764039237	19.638860285831
1	839	1021.502542494324	11.159080607174
1	844	1024.151890322457	12.51301809093
1	849	1044.560569762608	28.751785105398
1	854	1046.502512239182	25.948251818419
1	859	1049.346652787075	26.678252962787
1	864	1050.324713652353	15.747803731092
1	884	1065.979947561811	20.948224495863
1	886	1074.676976393594	25.554424085862
1	888	1077.950570322192	27.911584363178
1	896	1086.736450984936	28.811012368917
1	904	1091.106971320845	32.578177534847
1	909	1096.415826090885	35.435526905233
1	914	1101.271350081606	39.974203529169
1	916	1102.406338730306	40.884223973539
1	918	1104.905837101922	40.52268348723
1	920	1106.233691820255	26.366049775615
1	928	1111.345797908203	26.115179954746
1	933	1112.877837057783	24.976563131453
1	938	1123.982302069148	34.493244615659
1	943	1132.258101754536	40.17977362665
1	948	1140.635229041621	41.713021513236
1	953	1148.263094198543	39.439735355673
1	955	1149.151316911895	37.985629746178
1	957	1149.314896295636	37.924145134379
1	959	1152.03705933083	30.969866816902
1	964	1159.955480973806	33.461543088637
1	984	1176.770307461648	38.301500083545
1	986	1177.676966505064	35.585911082729
1	988	1182.392734472771	25.644362532847
1	991	1186.09928418676	25.569449608738
1	993	1190.433287243164	26.95849137818
1	995	1194.856827545157	26.67179639593
1	997	1195.146686971895	24.784575767958
1	999	1206.353770102367	35.596013301301
1	1001	1232.847063182452	57.096563734912
