version 2
run Testbench_1-106-20170516-19:17:39-50404
attr configname Testbench_1
attr datetime 20170516-19:17:39
attr experiment Testbench_1
attr inifile omnetpp.ini
attr iterationvars $0=50
attr iterationvars2 "$0=50, $repetition=6"
attr measurement $0=50
attr network Toll_road
attr processid 50404
attr repetition 6
attr replication #6
attr resultdir results
attr runnumber 106
attr seedset 106
param **.numBooths 3
param **.queue[*].serviceTime exponential(5.11s)
param **.source.interArrivalTime exponential(5.854s)
param **.source.numJobs 1000

vector 0  Toll_road.queue[0]  jobsProcessed:vector  ETV
attr interpolationmode  none
attr source  queueingTime
attr title  "jobs processed, vector"
vector 1  Toll_road.sink  lifeTime:vector  ETV
attr interpolationmode  none
attr title  "lifetime of arrived jobs, vector"
attr unit  s
0	3	0.050354260929	0
0	8	6.99334281846	0
0	15	11.807829780914	1.3193769093
0	20	41.3191398117	30.054583563759
0	31	51.274164688396	29.917926047014
0	36	58.151498776643	15.332167365642
0	44	65.899023596928	16.766816503965
0	52	71.65849116198	21.364877358368
0	54	71.849808044666	14.999904607897
0	62	84.251100755352	26.006203614355
0	67	87.639443479512	28.220877573564
0	72	91.748667849106	21.86058249316
0	77	95.990649973408	25.236997436451
0	79	97.661168400575	25.771922366614
0	81	101.342625343553	25.271538189347
0	83	103.810391313322	19.209682621852
0	88	109.897498202063	19.865473300325
0	90	111.498965216269	18.289712028967
0	92	116.277551135541	9.411718922873
0	98	138.532887294409	0
0	103	148.563086138221	0
0	107	153.279476258616	2.148807375187
0	112	155.635163368195	1.099712049444
0	123	163.235188856682	6.483932939916
0	137	176.655986990609	18.086628060541
0	148	191.004713529499	31.022752821758
0	159	193.339271549102	23.512812204494
0	170	209.237803776268	36.744272760777
0	178	222.650815535693	48.463064699656
0	183	237.423270761035	62.376188645649
0	185	237.729472059405	54.129516462934
0	193	245.920924614398	60.430720242156
0	198	247.247473116771	57.399551094044
0	203	247.383338193787	56.364604478271
0	211	253.273844591327	61.187611252572
0	219	259.88164275179	66.944540563191
0	222	264.079145374056	68.818128905157
0	224	271.285032239257	75.789083967937
0	226	272.690693333612	71.292533040633
0	228	284.468871043885	70.435614489446
0	230	285.473290979282	63.625875675814
0	232	289.897545355683	65.218698610158
0	234	292.386513947228	54.006919393719
0	236	304.980863775942	63.134113020573
0	238	305.429137496016	59.067083795297
0	240	308.589807691549	61.214292627026
0	242	315.653210716186	66.933541746772
0	244	318.763256811502	65.910826911498
0	246	320.596697295802	65.840906638348
0	248	320.703945017548	61.301770240586
1	5	3.355387324474	3.305033063545
1	16	11.807829780914	4.814486962454
1	21	41.3191398117	30.830686940086
1	32	51.274164688396	40.009608440455
1	37	58.151498776643	36.795260135261
1	45	65.899023596928	23.079692185927
1	53	71.65849116198	22.526284069017
1	55	71.849808044666	21.556194241054
1	63	84.251100755352	27.401197318583
1	68	87.639443479512	29.394546338515
1	73	91.748667849106	32.330101943158
1	78	95.990649973408	26.102564617462
1	80	97.661168400575	26.907515863618
1	82	101.342625343553	29.453379309592
1	84	103.810391313322	27.739304159116
1	89	109.897498202063	25.296789510593
1	91	111.498965216269	21.466940314531
1	93	116.277551135541	23.068297948239
1	95	117.137893180158	10.27206096749
1	100	139.755577789152	1.222690494743
1	108	153.279476258616	4.716390120395
1	113	155.635163368195	4.504494484766
1	124	163.235188856682	8.699737537931
1	138	176.655986990609	19.904731073843
1	149	191.004713529499	32.435354599431
1	160	193.339271549102	33.357310841361
1	171	209.237803776268	39.41134443166
1	179	222.650815535693	50.157284520202
1	184	237.423270761035	63.235519924998
1	186	237.729472059405	62.682389944019
1	194	245.920924614398	62.320969017927
1	199	247.247473116771	61.757268744529
1	204	247.383338193787	57.53541617106
1	212	253.273844591327	62.255110875811
1	220	259.88164275179	67.795409413035
1	223	264.079145374056	71.142043185457
1	225	271.285032239257	76.024015770358
1	227	272.690693333612	77.194745062292
1	229	284.468871043885	83.070710750906
1	231	285.473290979282	71.440034424843
1	233	289.897545355683	68.050130052215
1	235	292.386513947228	67.707667201703
1	237	304.980863775942	66.601269222433
1	239	305.429137496016	63.582386740647
1	241	308.589807691549	62.22775399083
1	243	315.653210716186	68.277695651663
1	245	318.763256811502	70.043587842088
1	247	320.596697295802	67.744267395798
1	249	320.703945017548	65.948154360094
1	251	321.671215616684	62.269040839722
