version 2
run Testbench_1-459-20170516-19:18:44-54548
attr configname Testbench_1
attr datetime 20170516-19:18:44
attr experiment Testbench_1
attr inifile omnetpp.ini
attr iterationvars $0=125
attr iterationvars2 "$0=125, $repetition=59"
attr measurement $0=125
attr network Toll_road
attr processid 54548
attr repetition 59
attr replication #59
attr resultdir results
attr runnumber 459
attr seedset 459
param **.numBooths 3
param **.queue[*].serviceTime exponential(5.11s)
param **.source.interArrivalTime exponential(5.854s)
param **.source.numJobs 1000

vector 0  Toll_road.queue[0]  jobsProcessed:vector  ETV
attr interpolationmode  none
attr source  queueingTime
attr title  "jobs processed, vector"
vector 1  Toll_road.sink  lifeTime:vector  ETV
attr interpolationmode  none
attr title  "lifetime of arrived jobs, vector"
attr unit  s
0	3	2.763806442051	0
0	8	4.531580008702	0
0	13	16.21939794883	0
0	20	25.926245598613	7.530213006688
0	28	45.947928662285	26.584887967276
0	33	61.995151300425	18.133053298676
0	35	62.304361396885	16.605618408419
0	40	70.249239800387	14.874240876205
0	54	74.800073013581	10.542277973028
0	56	77.94237832378	7.021565592567
0	58	78.555516162241	7.160450229095
0	60	78.581124889871	5.426796966806
0	65	83.933382593265	10.433677926017
0	67	85.10419811588	2.879068547629
0	73	97.049267988466	0
0	78	101.557660317238	0
0	82	104.222086067105	0.111257486862
0	88	109.6774318668	0
0	92	115.652954114457	4.547919832503
0	103	118.447888365735	1.946438750408
0	108	130.148552780878	13.453421438883
0	116	134.047739867806	16.378383421785
0	124	141.071839174813	22.524219721593
0	138	165.442584697204	34.90197062835
0	140	167.933355073532	34.543681303819
0	142	170.832250193827	34.186005626801
0	144	171.529077248254	32.412654205734
0	146	173.238807412648	32.155777829
0	157	185.026384244777	36.872283267345
0	171	200.623984275495	40.738710922145
0	173	202.50138037222	37.703521580227
0	175	210.281781376993	36.218416119295
0	177	212.867758610675	37.191077135012
0	188	218.088416224325	38.055729308697
0	196	235.055647824742	45.059338392563
0	198	235.955630441624	43.79171706635
0	200	239.164752369207	45.176620221308
0	208	249.443651114795	55.422221977247
0	213	253.917777999221	38.951870057136
0	215	254.00093126281	37.55332713895
0	217	254.08074850196	37.297596913845
0	219	254.84626966802	23.49166328471
0	221	255.216496849559	22.140949981224
0	235	269.356793680574	29.122820379327
0	237	270.562150581377	22.643326587421
0	239	273.920873715652	23.176056676539
0	244	275.456550883041	19.777458622481
0	246	275.707670021958	14.703941496494
0	248	281.381722591663	19.696982739214
0	250	283.666677307591	18.923593077446
0	252	284.060834572059	9.086919498875
0	260	296.539185018204	10.164164908509
0	262	297.223040187321	8.797047064906
0	267	302.177309234738	1.798213685218
0	272	304.306809790909	0.842222535455
0	280	307.119535101903	1.098576798419
0	282	307.354834503686	0.61192501677
0	288	317.262880763336	0
0	292	318.581636918117	1.035981124159
0	297	319.380398707374	0.563604061399
0	314	348.881506720327	24.936024253206
0	319	351.046404055125	22.856941968118
0	321	353.529369537018	19.864400181066
0	326	361.868385892804	24.753777905636
0	334	369.581607472496	26.832429359568
0	348	376.964843263009	25.985952742941
0	356	388.954529688442	31.548308812349
0	358	389.493777468065	24.900650101099
0	360	393.187946891188	25.501009245452
0	368	399.160139304652	28.172500783571
0	373	401.028271681504	29.773437278867
0	384	406.692009098049	34.416820385394
0	392	417.32329279093	41.833442129827
0	394	418.765953671726	33.736863800237
0	396	420.24332877475	31.353582446244
0	398	422.976409395201	27.482959083907
0	403	428.131865707624	31.196396974925
0	423	443.953258781928	43.796209570803
0	431	459.529895351721	55.870437992962
0	436	463.052106614971	57.267524721685
0	441	468.521449950326	61.995340149527
0	443	470.412679951047	61.220172880222
0	451	482.923546927557	67.653183449143
0	462	502.11183132619	78.024603888469
0	467	503.655008767701	74.457494071806
0	469	503.677256690673	73.910117462231
0	471	503.776889385742	70.889392054887
0	473	504.649379347225	69.319852777857
0	475	513.477941607594	73.770708133363
0	477	515.169385002454	73.483180783305
0	482	522.51409829875	78.027080347278
0	484	523.370805092602	63.906562251941
0	486	525.417088928702	65.123279069545
0	488	529.963861766466	65.643143789334
0	490	530.765199579084	52.162843519308
0	492	533.51711258916	54.483998945233
0	494	534.274514928302	40.063028716034
0	499	540.576443655002	41.776639980968
0	501	547.463853134233	46.328893412001
0	503	551.153413741315	48.315577450667
0	505	553.380527068409	36.75720293823
0	507	555.946462667793	21.296584405431
0	513	574.124781099411	0
0	518	580.187380379924	0
0	523	589.388119900298	0
0	528	605.37968546386	0
0	533	610.450956916071	0
0	537	620.041050495347	0.166370303612
0	545	634.449105203295	11.571484451467
0	550	638.576351528683	5.436275136218
0	552	646.118075314658	8.351166291699
0	557	653.107119150425	0.890778033815
0	565	664.509255278261	3.90757522366
0	567	664.560137292192	2.155813326439
0	573	674.921449080732	0
0	577	679.584090735075	4.460165721643
0	583	689.208315497905	0
0	587	692.676548746643	2.712885173419
0	593	697.654574223126	0
0	598	705.102537340918	0
0	611	719.543447945	10.257623049901
0	616	720.866430341065	10.776905829285
0	618	722.544632937468	8.168335120958
0	620	725.63823542383	9.961330856039
0	623	727.487902619875	7.042355320657
1	5	2.880602560193	0.116796118142
1	10	10.70906078767	6.177480778968
1	21	25.926245598613	9.706847649783
1	29	45.947928662285	27.55189607036
1	34	61.995151300425	42.632110605416
1	36	62.304361396885	18.442263395136
1	41	70.249239800387	24.550496811921
1	55	74.800073013581	19.425074089399
1	57	77.94237832378	13.684583283227
1	59	78.555516162241	7.634703431028
1	61	78.581124889871	7.186058956725
1	66	83.933382593265	10.7790546702
1	68	85.10419811588	11.604493448632
1	70	87.669256543831	5.44412697558
1	75	100.931446261948	3.882178273482
1	83	104.222086067105	2.664425749867
1	85	106.684597493847	2.573768913604
1	93	115.652954114457	5.975522247657
1	104	118.447888365735	7.342854083781
1	109	130.148552780878	13.647103165551
1	117	134.047739867806	17.352608525811
1	125	141.071839174813	23.402482728792
1	139	165.442584697204	46.894965243984
1	141	167.933355073532	37.392741004678
1	143	170.832250193827	37.442576424114
1	145	171.529077248254	34.882832681228
1	147	173.238807412648	34.122384370128
1	158	185.026384244777	43.943354661129
1	172	200.623984275495	52.469883298063
1	174	202.50138037222	42.61610701887
1	176	210.281781376993	45.483922585
1	178	212.867758610675	38.804393352977
1	189	218.088416224325	42.411734748662
1	197	235.055647824742	55.022960909114
1	199	235.955630441624	45.959321009445
1	201	239.164752369207	47.000838993933
1	209	249.443651114795	55.455518966896
1	214	253.917777999221	59.896348861673
1	216	254.00093126281	39.035023320725
1	218	254.08074850196	37.6331443781
1	220	254.84626966802	38.063118079905
1	222	255.216496849559	23.861890466249
1	236	269.356793680574	36.281246812239
1	238	270.562150581377	30.32817728013
1	240	273.920873715652	26.002049721696
1	245	275.456550883041	24.711733843928
1	247	275.707670021958	20.028577761398
1	249	281.381722591663	20.377994066199
1	251	283.666677307591	21.981937455142
1	253	284.060834572059	19.317750341914
1	261	296.539185018204	21.56526994502
1	263	297.223040187321	10.848020077626
1	268	302.177309234738	13.751316112323
1	273	304.306809790909	3.927714241389
1	281	307.119535101903	3.654947846449
1	283	307.354834503686	1.333876200202
1	285	308.038478678405	1.295569191489
1	293	318.581636918117	1.318756154781
1	298	319.380398707374	1.834742913416
1	315	348.881506720327	30.064712074352
1	320	351.046404055125	27.100921588004
1	322	353.529369537018	25.339907450011
1	327	361.868385892804	28.203416536852
1	335	369.581607472496	32.466999485328
1	349	376.964843263009	34.215665150081
1	357	388.954529688442	37.975639168374
1	359	389.493777468065	32.087556591972
1	361	393.187946891188	28.594819524222
1	369	399.160139304652	31.473201658916
1	374	401.028271681504	30.040633160423
1	385	406.692009098049	35.437174695412
1	393	417.32329279093	45.048104078275
1	395	418.765953671726	43.276103010623
1	397	420.24332877475	35.214238903261
1	399	422.976409395201	34.086663066695
1	404	428.131865707624	32.63841539633
1	424	443.953258781928	47.017790049229
1	432	459.529895351721	59.372846140596
1	437	463.052106614971	59.392649256212
1	442	468.521449950326	62.73686805704
1	444	470.412679951047	63.886570150248
1	452	482.923546927557	73.731039856732
1	463	502.11183132619	86.841467847776
1	468	503.655008767701	79.56778132998
1	470	503.677256690673	74.479741994778
1	472	503.776889385742	74.0097501573
1	474	504.649379347225	71.76188201637
1	476	513.477941607594	78.148415038226
1	478	515.169385002454	75.462151528223
1	483	522.51409829875	80.827894079601
1	485	523.370805092602	78.88378714113
1	487	525.417088928702	65.952846088041
1	489	529.963861766466	69.670051907309
1	491	530.765199579084	66.444481601952
1	493	533.51711258916	54.914756529384
1	495	534.274514928302	55.241401284375
1	500	540.576443655002	46.364957442734
1	502	547.463853134233	48.664049460199
1	504	551.153413741315	50.018454019083
1	506	553.380527068409	50.542690777761
1	508	555.946462667793	39.323138537614
1	510	555.960049231868	21.310170969506
1	515	576.747545713337	2.622764613926
1	520	587.203830402725	7.016450022801
1	525	591.118047206675	1.729927306377
1	530	605.927554054984	0.547868591124
1	538	620.041050495347	9.590093579276
1	546	634.449105203295	14.57442501156
1	551	638.576351528683	15.698730776855
1	553	646.118075314658	12.977998922193
1	558	653.107119150425	15.340210127466
1	566	664.509255278261	12.292914161651
1	568	664.560137292192	3.958457237591
1	570	668.490021583243	6.08569761749
1	578	679.584090735075	4.662641654343
1	580	686.701100525752	11.57717551232
1	588	692.676548746643	3.468233248738
1	590	693.393266949489	3.429603376265
1	595	701.939727586412	4.285153363286
1	612	719.543447945	14.440910604082
1	617	720.866430341065	11.580605445966
1	619	722.544632937468	12.455108425688
1	621	725.63823542383	11.26193760732
1	624	727.487902619875	11.810998052084
1	626	727.893935507325	7.448388208107
