version 2
run Testbench_1-371-20170516-19:18:26-53104
attr configname Testbench_1
attr datetime 20170516-19:18:26
attr experiment Testbench_1
attr inifile omnetpp.ini
attr iterationvars $0=100
attr iterationvars2 "$0=100, $repetition=71"
attr measurement $0=100
attr network Toll_road
attr processid 53104
attr repetition 71
attr replication #71
attr resultdir results
attr runnumber 371
attr seedset 371
param **.numBooths 3
param **.queue[*].serviceTime exponential(5.11s)
param **.source.interArrivalTime exponential(5.854s)
param **.source.numJobs 1000

vector 0  Toll_road.queue[0]  jobsProcessed:vector  ETV
attr interpolationmode  none
attr source  queueingTime
attr title  "jobs processed, vector"
vector 1  Toll_road.sink  lifeTime:vector  ETV
attr interpolationmode  none
attr title  "lifetime of arrived jobs, vector"
attr unit  s
0	3	6.503564401157	0
0	10	15.233360355793	7.559000639771
0	12	17.467408558467	7.75512094402
0	18	19.508597529725	0
0	23	47.122864610359	0
0	30	56.890803220703	9.198841158853
0	38	62.974286060509	14.816914387243
0	43	68.284500231893	10.431663813576
0	51	77.048109877212	18.096307200832
0	53	82.484384541574	17.261079070278
0	55	87.667134830278	14.705008191987
0	57	89.792321788037	14.835854267674
0	62	90.945317147241	0.77024559011
0	68	108.155571780121	0
0	72	109.666613196389	1.183788565594
0	78	117.473613956265	0
0	85	121.986061793951	3.672913921768
0	96	126.238145683491	6.915916937731
0	104	142.90730809774	20.70920516925
0	115	154.636375657708	29.219251676444
0	123	156.828297080256	30.603179161035
0	134	167.333773307656	39.853915618686
0	136	167.450027637255	26.673812118333
0	138	168.283863620398	22.431256279472
0	140	169.58874939256	19.615161954423
0	142	174.0648780493	23.823433929493
0	150	183.594051019679	28.358422274257
0	152	188.630232536945	32.857898134723
0	157	189.873153341874	30.943974502332
0	159	193.539210243923	29.960272784653
0	164	209.721116699391	43.239053263054
0	166	213.457791108579	34.084979764437
0	177	238.463605675224	58.880066940433
0	179	240.24731847391	50.425537207477
0	184	255.988133692384	61.836986263899
0	189	259.680208355678	45.316847580898
0	191	259.996710243443	29.203533206186
0	193	260.891453893363	28.82375191811
0	195	264.641827472223	14.900282635992
0	197	266.650997987513	10.480013175623
0	208	274.642737839137	2.944967890647
0	213	278.095480945026	4.876650806402
0	218	291.242459255971	17.911468853207
0	223	294.006878069698	18.829123364519
0	225	296.481207883654	15.925099908594
0	230	300.740792896189	7.139191112658
0	232	302.73471190514	4.821135932754
0	237	309.989695176772	2.042428258925
0	248	317.105904565073	3.868940534235
0	250	317.578254631009	1.88220697055
0	252	319.146303195274	2.102709174971
0	260	332.50779688567	11.390128362675
0	268	351.653145479682	24.752964129071
0	282	373.605937632349	34.29089273682
0	284	374.602662022122	26.421144081333
0	292	382.306423948174	29.396883188074
0	294	382.965903050711	28.914506573374
0	296	384.89590504013	25.658405084056
0	301	395.859828440612	22.49824584778
0	306	404.32932667911	27.495209737356
0	308	417.81057785005	40.102154426546
0	310	423.720263003194	36.329545532156
0	327	442.51830642624	42.741936395949
0	341	455.371066836921	28.627087404098
0	349	461.538082899333	26.439109491705
0	351	468.582772052066	33.147269732529
0	353	473.239419778591	35.074259274163
0	355	474.222908307344	35.275478005302
0	369	484.822786753343	38.982936444894
0	371	492.757785152618	43.539730992541
0	373	493.909652382845	43.271908685099
0	381	508.417819937244	56.777785005206
0	383	509.267222828502	53.00616665355
0	385	511.044247453176	49.732383014917
0	387	514.732934679934	34.800296644476
0	392	517.785865067742	36.436282868727
0	394	521.318392225581	39.391280079652
0	396	523.061536851042	40.442405056687
0	398	523.459065514109	27.459095562029
0	403	527.925045079135	29.544942276436
0	405	530.600325887405	14.95977950771
0	416	536.688419576735	10.462834459389
0	418	537.091132688583	3.513557263785
0	420	561.780839905747	26.284171974556
0	422	562.1423875774	26.122063096662
0	433	570.270984844244	2.56408265769
0	435	571.509377055712	3.36314216213
0	437	572.855326588959	3.521524110408
0	445	582.613078607816	6.380102537688
0	450	592.387486593584	11.961947222485
0	461	601.001953873305	17.017707759005
0	478	614.635901894389	19.225178277031
0	480	616.664659370316	20.460549609451
0	485	620.734438647237	21.606859614461
0	487	625.133231087499	21.352167371875
0	489	627.657750551529	23.261262048482
0	491	631.719050588356	23.836551861123
0	493	632.394378555977	23.227000536243
0	496	640.454197275706	28.98360699053
0	498	651.265110375297	31.634688476932
1	11	15.233360355793	8.729795954636
1	13	17.467408558467	9.793048842445
1	15	17.540287509252	7.827999894805
1	20	30.559272570399	11.050675040674
1	31	56.890803220703	9.767938610344
1	39	62.974286060509	15.282323998659
1	44	68.284500231893	20.127128558627
1	52	77.048109877212	19.195273458895
1	54	82.484384541574	23.532581865194
1	56	87.667134830278	22.443829358982
1	58	89.792321788037	16.830195149746
1	63	90.945317147241	15.988849626878
1	65	91.257241492693	1.082169935562
1	73	109.666613196389	1.511041416268
1	75	111.707250358274	3.224425727479
1	86	121.986061793951	4.512447837686
1	97	126.238145683491	7.924997811308
1	105	142.90730809774	23.58507935198
1	116	154.636375657708	32.438272729218
1	124	156.828297080256	31.411173098992
1	135	167.333773307656	41.108655388435
1	137	167.450027637255	39.970169948285
1	139	168.283863620398	27.507648101476
1	141	169.58874939256	23.736142051634
1	143	174.0648780493	24.091290611163
1	151	183.594051019679	33.352606899872
1	153	188.630232536945	33.394603791523
1	158	189.873153341874	34.100818939652
1	160	193.539210243923	34.610031404381
1	165	209.721116699391	46.142179240121
1	167	213.457791108579	46.975727672242
1	178	238.463605675224	59.090794331082
1	180	240.24731847391	60.663779739119
1	185	255.988133692384	66.166352425951
1	190	259.680208355678	65.529060927193
1	192	259.996710243443	45.633349468663
1	194	260.891453893363	30.098276856106
1	196	264.641827472223	32.57412549697
1	198	266.650997987513	16.909453151282
1	209	274.642737839137	18.471753027247
1	214	278.095480945026	6.397710996536
1	219	291.242459255971	18.023629117347
1	224	294.006878069698	20.675887666934
1	226	296.481207883654	21.303453178475
1	231	300.740792896189	20.184684921129
1	233	302.73471190514	9.133110121609
1	238	309.989695176772	12.076119204386
1	249	317.105904565073	9.158637647226
1	251	317.578254631009	4.341290600171
1	253	319.146303195274	3.450255534815
1	261	332.50779688567	15.464202865367
1	269	351.653145479682	30.535476956687
1	283	373.605937632349	46.705756281738
1	285	374.602662022122	35.287617126593
1	293	382.306423948174	34.124906007385
1	295	382.965903050711	30.056362290611
1	297	384.89590504013	30.844508562793
1	302	395.859828440612	36.622328484538
1	307	404.32932667911	30.967744086278
1	309	417.81057785005	40.976460908296
1	311	423.720263003194	46.01183957969
1	328	442.51830642624	55.127588955202
1	342	455.371066836921	55.59469680663
1	350	461.538082899333	34.79410346651
1	352	468.582772052066	33.483798644438
1	354	473.239419778591	37.803917459054
1	356	474.222908307344	36.057747802916
1	370	484.822786753343	45.875356451301
1	372	492.757785152618	46.917934844169
1	374	493.909652382845	44.691598222768
1	382	508.417819937244	57.780076239498
1	384	509.267222828502	57.627187896464
1	386	511.044247453176	54.783191278224
1	388	514.732934679934	53.421070241675
1	393	517.785865067742	37.853227032284
1	395	521.318392225581	39.968810026566
1	397	523.061536851042	41.134424705113
1	399	523.459065514109	40.839933719754
1	404	527.925045079135	31.925075127055
1	406	530.600325887405	32.220223084706
1	417	536.688419576735	21.04787319704
1	419	537.091132688583	10.865547571237
1	421	561.780839905747	28.203264480949
1	423	562.1423875774	26.645719646209
1	434	570.270984844244	34.250660363506
1	436	571.509377055712	3.802474869158
1	438	572.855326588959	4.709091695377
1	446	582.613078607816	13.279276129265
1	451	592.387486593584	16.154510523456
1	462	601.001953873305	20.576414502206
1	479	614.635901894389	30.651655780089
1	481	616.664659370316	21.253935752958
1	486	620.734438647237	24.530328886372
1	488	625.133231087499	26.005652054723
1	490	627.657750551529	23.876686835905
1	492	631.719050588356	27.322562085309
1	494	632.394378555977	24.511879828744
1	497	640.454197275706	31.286819255972
1	499	651.265110375297	39.794520090121
1	501	653.698989852019	34.068567953654
