version 2
run Testbench_1-1139-20170516-19:21:33-58484
attr configname Testbench_1
attr datetime 20170516-19:21:33
attr experiment Testbench_1
attr inifile omnetpp.ini
attr iterationvars $0=300
attr iterationvars2 "$0=300, $repetition=39"
attr measurement $0=300
attr network Toll_road
attr processid 58484
attr repetition 39
attr replication #39
attr resultdir results
attr runnumber 1139
attr seedset 1139
param **.numBooths 3
param **.queue[*].serviceTime exponential(5.11s)
param **.source.interArrivalTime exponential(5.854s)
param **.source.numJobs 1000

vector 0  Toll_road.queue[0]  jobsProcessed:vector  ETV
attr interpolationmode  none
attr source  queueingTime
attr title  "jobs processed, vector"
vector 1  Toll_road.sink  lifeTime:vector  ETV
attr interpolationmode  none
attr title  "lifetime of arrived jobs, vector"
attr unit  s
0	3	1.28787446779	0
0	8	2.056457779158	0
0	24	13.711237102461	7.487360841002
0	26	16.021938435473	9.122313758076
0	34	20.859467232431	13.672178054669
0	42	23.403280347463	15.331020174832
0	44	24.180415991831	14.037016199234
0	49	28.960434969549	11.256277489931
0	54	35.372726583693	15.667942965932
0	59	35.613155710941	14.62431298173
0	61	36.344872305587	13.842660750103
0	63	36.706813851673	12.005976147528
0	65	47.139505151128	17.291306476797
0	70	52.234704721354	16.70514750127
0	75	66.474232762038	18.242662627737
0	77	68.020093517766	12.722486892518
0	83	79.930879879792	0
0	88	88.427094764646	0
0	93	101.601219976624	0
0	98	107.076676984173	0
0	103	115.476243786987	0
0	107	120.377647049482	0.943967774127
0	133	145.66434024188	23.619743971441
0	135	149.537421298899	26.583024737048
0	137	149.697308582707	26.200382194134
0	139	152.483681155446	23.802829269465
0	144	157.183367367742	24.592879310922
0	146	160.935165582166	27.545539719008
0	151	163.116462157824	27.118118979208
0	153	168.22768732521	30.414482529653
0	155	170.415800591462	16.563264562497
0	160	171.717138273938	10.575462344692
0	165	172.874241428401	1.895806494508
0	170	179.564041808789	7.427581584894
0	175	185.464409134565	7.790673872097
0	180	190.537243281572	10.657750378274
0	182	190.746002647381	1.022642876691
0	188	208.712848000895	0
0	193	224.729827113692	0
0	200	234.613131846454	2.759338035809
0	205	242.123693586289	7.928767288464
0	207	248.214183005965	13.16772955874
0	212	254.819204343812	0.797219148591
0	218	283.120948161037	0
0	228	289.318778743145	2.776948281384
0	239	311.514561225181	23.378385193542
0	253	319.256938588541	30.482447827232
0	255	322.820318020533	32.536750578051
0	257	326.175835231172	27.745776199095
0	259	326.266638504933	16.846536017289
0	267	329.473817050263	17.082700950026
0	272	335.221276087146	18.658803260457
0	274	335.667133511153	18.643869768555
0	279	339.842212507073	21.533193976516
0	284	342.697466956587	14.386549855321
0	298	365.576918110617	36.325960815531
0	300	367.694297554626	34.525238547918
0	302	372.001559067699	35.683941180032
0	304	373.146884718471	31.341759727666
0	309	375.932020230688	24.570440361219
0	326	386.496673986427	26.522757835928
0	334	405.432649210985	44.935243686775
0	336	406.842150239185	42.88317871386
0	353	419.420456668001	45.045562482103
0	367	444.309505935321	66.88376746592
0	372	449.013857244835	71.189356584218
0	377	455.333170893971	77.39424589146
0	379	460.488145941156	76.748155419132
0	381	462.611686994876	77.628435609304
0	383	467.457699815858	71.992089104812
0	385	471.263186243413	66.954810303856
0	387	474.151353714311	64.28380265082
0	392	482.453641785257	69.232220884088
0	394	491.107663481064	74.828115861172
0	402	508.652502902674	91.065535526856
0	410	522.221371954871	104.21655298214
0	412	522.677661996242	101.57719171841
0	414	523.235142783355	97.887621008765
0	425	527.811841667451	90.56044416968
0	430	534.445797188098	94.822564128546
0	435	538.522641448495	93.908400987968
0	437	552.140932860212	101.51709169789
0	439	554.67131688397	76.435266825298
0	441	554.857099983979	63.332584904073
0	443	557.476947057107	63.598420180814
0	445	558.826017569234	50.071160280792
0	447	558.978347260574	47.254396848202
0	452	567.503596234384	43.027753500451
0	457	574.612655930728	49.220966904595
0	459	575.655692876173	49.436245039745
0	461	583.157889331926	51.727001613464
0	463	589.383118664961	53.230371899562
0	465	594.958035901199	32.323067798031
0	485	618.197565093609	48.179494721752
0	490	624.788698784048	28.225072125045
0	492	624.878681496398	26.181633465492
0	500	635.125909853084	35.916287623328
0	511	642.803253024502	34.250488516
0	513	646.360141773918	36.435145627322
0	518	649.777257767831	36.262302913405
0	520	649.905057224136	25.163725457567
0	531	654.298779956299	27.378025984633
0	536	655.675578241898	25.209147524625
0	538	656.34605594408	19.543215584582
0	540	658.429753113394	18.954009348367
0	542	661.281549234905	18.752041773625
0	544	662.402197716377	13.485743872097
0	552	667.746793964096	15.828349762111
0	554	670.497615368574	18.336664404358
0	556	673.719604027782	20.505136947484
0	573	689.522778639609	33.972248239194
0	584	695.941406166292	30.084294548538
0	589	696.364425001892	30.024663585213
0	591	705.948862244798	30.779658885137
0	593	709.477923111358	33.590292578496
0	598	713.929574338822	37.04311013661
0	600	714.221400807255	33.614288904574
0	608	715.38427564926	29.896884039611
0	613	721.896468909528	29.857347953249
0	621	725.239877419754	32.778445314896
0	623	725.770785612703	32.652958518649
0	631	730.543298827007	34.236322809621
0	633	731.113508490905	17.818003312894
0	644	752.00612541585	37.774035490004
0	652	759.352277054932	44.528099442703
0	654	759.885772489621	38.030731694868
0	656	760.460095694712	37.450543713688
0	658	766.205662524042	42.41347105113
0	660	771.510004093832	42.42160140535
0	671	776.2019487304	46.481240539019
0	673	777.065409840423	39.553891667707
0	681	779.77323438729	32.490558729307
0	683	781.065307333862	29.414335094623
0	697	798.411049670411	45.375085180941
0	699	803.26514687897	47.308298521914
0	701	804.689801506751	32.490622897436
0	706	809.169964075338	35.246453845519
0	714	812.328494761064	37.942149366177
0	731	834.664541426868	57.554867672675
0	733	846.411685865705	68.405683414747
0	735	846.597339853381	65.133040684859
0	743	858.307597389757	68.617950963368
0	754	871.281291088466	76.458999780868
0	762	874.330031145716	79.343334967278
0	764	875.613566861819	67.153565968941
0	766	876.030426432561	65.757290549306
0	771	880.250644184287	68.845818317826
0	773	881.699317037421	67.655765698773
0	778	883.211377791363	57.179270885397
0	780	885.009017354325	57.782347163841
0	794	899.086621597176	69.623278887506
0	799	912.281798206182	82.605655153057
0	801	917.253103419416	62.528531244962
0	803	923.311788769076	65.408123967445
0	805	925.412173013904	67.053288332585
0	816	936.386927752848	73.771447160941
0	830	956.148100873632	89.960738027014
0	835	962.642021225849	90.905947652399
0	837	970.465354323662	97.975659308565
0	848	981.822666564257	104.13897368891
0	856	989.641053639992	107.9219704245
0	861	1002.479624938824	113.96928531963
0	863	1002.877389056423	113.27533845341
0	865	1003.880960060413	106.8586689463
0	882	1026.511538255155	129.15776430384
0	890	1039.01889101238	131.9361826286
0	892	1039.416415238691	111.2167899344
0	894	1039.464569836132	110.67516131735
0	896	1046.106340601566	113.60103177081
0	898	1053.685551640936	115.3350464789
0	903	1057.209579151857	113.06860586244
0	905	1057.220464801142	109.64787227266
0	907	1058.157844560333	105.62968375347
0	909	1062.13896476611	105.3091777462
0	911	1062.357802845115	84.031864033626
0	913	1070.506860986526	90.166775969197
0	918	1073.240504684492	91.529464044449
0	920	1082.18092464537	100.02591059797
0	922	1086.870273162836	100.23106515277
0	924	1088.113946999787	91.135391645302
0	926	1099.032017722837	93.795155537331
0	928	1100.757854549502	88.986420105122
0	936	1127.720307012114	111.74776659093
0	938	1128.996100715859	111.53368676595
0	943	1132.694958760526	107.4033404582
0	951	1137.827950348671	109.11791024512
0	953	1140.293197874825	104.51593714343
0	955	1140.626156007953	86.499472758703
0	957	1141.523894004209	68.726964367306
0	959	1146.051752798375	20.155322333318
0	967	1151.657495226051	24.702097815762
0	969	1152.90734876285	21.553433992337
0	971	1158.480186383247	22.242197711273
0	976	1160.880253396884	24.297807196951
0	978	1166.265455995269	15.206814466784
0	986	1170.011041223786	18.940426199433
0	988	1172.906050547621	12.461835848521
0	996	1189.011676012724	21.836853385261
0	998	1190.647338982015	22.757852449703
0	1000	1190.689708751869	12.113907187612
0	1002	1193.708448201472	8.358643251269
0	1008	1198.068787719174	0
0	1013	1203.321573272988	0
0	1035	1224.876039457652	17.081611667396
0	1037	1232.521356060099	23.327851695937
0	1045	1244.902179827588	29.939857579291
0	1047	1245.189421928475	25.289649654333
0	1052	1260.503725770464	39.1494847105
0	1054	1262.309965491024	39.61224341633
0	1056	1266.399936468819	43.286147829091
0	1064	1284.952428479005	50.008402293846
0	1069	1292.517391581895	51.642825825481
0	1071	1294.650928286675	37.463227771552
0	1073	1294.873627987039	26.224352763222
0	1078	1300.24046812723	21.33371504636
0	1080	1302.227229639515	9.85287757363
0	1085	1304.343216295861	5.033323622738
0	1087	1311.481876713524	8.648747646419
0	1095	1319.492832667077	7.783234510688
0	1100	1324.327225476485	11.037563155824
0	1108	1337.276179465319	16.591742672372
0	1122	1351.22041387301	18.915296028512
0	1127	1357.752764959091	22.758076733829
0	1129	1357.916321088003	19.713919373464
0	1134	1362.112165028216	23.85336750847
0	1142	1373.770851846287	28.978842693816
0	1144	1374.384563438563	26.39965681742
0	1149	1378.505846669594	26.043081333881
0	1151	1384.711274069227	25.567009017743
0	1156	1390.521181883898	22.57955973435
0	1164	1401.221388354965	33.259386120601
0	1166	1403.682706541597	25.905564116907
0	1174	1416.505251550308	28.991455167126
0	1176	1416.716696891345	24.151279508198
0	1178	1417.478247043807	16.769071259263
0	1180	1418.098969085554	14.229236896443
0	1185	1425.274183180993	16.540064696894
0	1187	1425.406794610799	4.901169938022
0	1192	1430.245607960587	4.418462041187
0	1198	1440.906514203163	0
0	1205	1444.84683989301	1.984105710661
0	1210	1449.684734250615	5.2906397975
0	1212	1451.552503335935	4.91896040191
0	1229	1467.957608815518	11.997791666106
0	1234	1487.511529943229	26.593845861033
0	1239	1491.203853030197	28.24344167754
0	1241	1496.887806022574	33.89058791483
0	1258	1517.2346582205	49.868413804409
0	1263	1520.580041660294	33.823391194413
0	1271	1530.719488308708	42.368047500923
0	1276	1536.533492168319	33.884082426322
0	1281	1542.887117303547	35.269637963781
0	1283	1545.091695016104	37.142628014885
0	1285	1547.689240912397	37.021521781932
0	1287	1552.727441504184	41.516445687376
0	1295	1558.007538649531	39.378545444403
0	1297	1558.547048639116	36.397457584846
0	1299	1558.728552882359	33.686057695085
0	1301	1562.701423196183	27.633031931657
0	1303	1565.098848689493	25.52752677734
0	1305	1567.691072344686	14.616059054714
0	1307	1571.590536390403	16.556474287365
0	1315	1575.623604364479	1.859975754619
0	1317	1579.45862609026	4.621261494088
0	1323	1590.886901978923	0
0	1330	1600.355487396772	8.521293370091
0	1332	1603.598015340937	5.927254722995
0	1338	1609.102863081607	0
0	1342	1612.093297662637	2.651313536328
0	1347	1614.174557482203	1.826742805599
0	1355	1620.374352216776	4.071296631078
0	1357	1626.634392089974	8.510257255713
0	1363	1637.090936195147	0
0	1368	1642.173840075633	0
0	1372	1645.73507908764	1.401381670101
0	1378	1660.086515743973	0
0	1388	1672.625331544516	8.219926956952
0	1390	1673.529396162851	8.501893281894
0	1401	1696.647807985668	26.454085581365
0	1415	1719.944708887333	35.897251563534
0	1429	1725.694460904752	31.582940212575
0	1437	1734.053043408223	38.886634050159
0	1439	1735.587139903752	30.586441731464
0	1450	1751.025130387056	44.943426759096
0	1452	1753.476038636074	46.540611892904
0	1454	1754.603063252147	47.480151880145
0	1456	1756.071506123336	35.663736340021
0	1464	1761.796471101754	39.997622206973
0	1466	1766.60476777577	43.792642567134
0	1468	1766.930483862376	43.009996623715
0	1470	1768.393920898271	40.695384833007
0	1475	1770.921080803222	40.11576982235
0	1480	1775.717495494487	37.587343536933
0	1482	1779.858500569129	38.53706800128
0	1484	1779.981075981499	35.987810253323
0	1490	1805.051674648248	48.870152923529
0	1492	1805.580533290264	43.944950172102
0	1494	1806.982291603994	38.57514074672
0	1496	1811.73873147098	39.383845390298
0	1498	1815.958874851412	35.737526795206
1	5	1.60716850277	0.31929403498
1	25	13.711237102461	11.654779323303
1	27	16.021938435473	9.798062174014
1	35	20.859467232431	13.959842555034
1	43	23.403280347463	16.215991169701
1	45	24.180415991831	16.1081558192
1	50	28.960434969549	18.817035176952
1	55	35.372726583693	17.668569104075
1	60	35.613155710941	15.90837209318
1	62	36.344872305587	15.356029576376
1	64	36.706813851673	14.204602296189
1	66	47.139505151128	22.438667446983
1	71	52.234704721354	22.386506047023
1	76	66.474232762038	30.944675541954
1	78	68.020093517766	19.788523383465
1	80	69.885297541909	14.587690916661
1	85	80.246168684866	0.315288805074
1	90	95.684416517005	7.257321752359
1	95	106.838935271083	5.237715294459
1	100	108.840049509656	1.763372525483
1	108	120.377647049482	4.901403262495
1	134	145.66434024188	26.230660966525
1	136	149.537421298899	27.49282502846
1	138	149.697308582707	26.742912020856
1	140	152.483681155446	28.986754766873
1	145	157.183367367742	28.502515481761
1	147	160.935165582166	28.344677525346
1	152	163.116462157824	29.726836294666
1	154	168.22768732521	32.229344146594
1	156	170.415800591462	32.602595795905
1	161	171.717138273938	17.864602244973
1	166	172.874241428401	11.732565499155
1	171	179.564041808789	8.585606874896
1	176	185.464409134565	13.32794891067
1	181	190.537243281572	12.863508019104
1	183	190.746002647381	10.866509744083
1	185	195.308087609913	5.584727839223
1	190	211.926637503185	3.21378950229
1	201	234.613131846454	9.883304732762
1	206	242.123693586289	10.269899775644
1	208	248.214183005965	14.01925670814
1	213	254.819204343812	19.772750896587
1	215	255.002118563557	0.980133368336
1	229	289.318778743145	6.197830582108
1	240	311.514561225181	24.97273076342
1	254	319.256938588541	31.120762556902
1	256	322.820318020533	34.045827259224
1	258	326.175835231172	35.89226778869
1	260	326.266638504933	27.836579472856
1	268	329.473817050263	20.053714562619
1	273	335.221276087146	22.830159986909
1	275	335.667133511153	19.104660684464
1	280	339.842212507073	22.818948764475
1	285	342.697466956587	24.38844842603
1	299	365.576918110617	37.266001009351
1	301	367.694297554626	38.44334025954
1	303	372.001559067699	38.832500060991
1	305	373.146884718471	36.829266830804
1	310	375.932020230688	34.126895239883
1	327	386.496673986427	35.135094116958
1	335	405.432649210985	45.458733060486
1	337	406.842150239185	46.344744714975
1	354	419.420456668001	55.461485142676
1	368	444.309505935321	69.934611749423
1	373	449.013857244835	71.588118775434
1	378	455.333170893971	77.508670233354
1	380	460.488145941156	82.549220938645
1	382	462.611686994876	78.871696472852
1	384	467.457699815858	82.474448430286
1	386	471.263186243413	75.797575532367
1	388	474.151353714311	69.842977774754
1	393	482.453641785257	72.586090721766
1	395	491.107663481064	77.886242579895
1	403	508.652502902674	92.372955282782
1	411	522.221371954871	104.63440457905
1	413	522.677661996242	104.67284302351
1	415	523.235142783355	102.13467250552
1	426	527.811841667451	102.46431989286
1	431	534.445797188098	97.194399690327
1	436	538.522641448495	98.899408388943
1	438	552.140932860212	107.52669239969
1	440	554.67131688397	104.04747572165
1	442	554.857099983979	76.621049925307
1	444	557.476947057107	65.952431977201
1	446	558.826017569234	64.947490692941
1	448	558.978347260574	50.223489972132
1	453	567.503596234384	55.779645822012
1	458	574.612655930728	50.136813196795
1	460	575.655692876173	50.26400385004
1	462	583.157889331926	56.938441495498
1	464	589.383118664961	57.952230946499
1	466	594.958035901199	58.8052891358
1	486	618.197565093609	55.562596990441
1	491	624.788698784048	54.770628412191
1	493	624.878681496398	28.315054837395
1	501	635.125909853084	36.428861822178
1	512	642.803253024502	43.593630794746
1	514	646.360141773918	37.807377265416
1	519	649.777257767831	39.852261621235
1	521	649.905057224136	36.39010236971
1	532	654.298779956299	29.55744818973
1	537	655.675578241898	28.754824270232
1	539	656.34605594408	25.879625226807
1	541	658.429753113394	21.626912753896
1	543	661.281549234905	21.805805469878
1	545	662.402197716377	19.872690255097
1	553	667.746793964096	18.830340119816
1	555	670.497615368574	18.579171166589
1	557	673.719604027782	21.558653063566
1	574	689.522778639609	36.308311559311
1	585	695.941406166292	40.390875765877
1	590	696.364425001892	30.507313384138
1	592	705.948862244798	39.609100828119
1	594	709.477923111358	34.308719751697
1	599	713.929574338822	38.04194380596
1	601	714.221400807255	37.334936605043
1	609	715.38427564926	34.777163746579
1	614	721.896468909528	36.409077299879
1	622	725.239877419754	33.200756463475
1	624	725.770785612703	33.309353507845
1	632	730.543298827007	37.425471732953
1	634	731.113508490905	34.806532473519
1	645	752.00612541585	38.710620237839
1	653	759.352277054932	45.120187129086
1	655	759.885772489621	45.061594877392
1	657	760.460095694712	38.605054899959
1	659	766.205662524042	43.196110543018
1	661	771.510004093832	47.71781262092
1	672	776.2019487304	47.113546041918
1	674	777.065409840423	47.344701649042
1	682	779.77323438729	42.261716214574
1	684	781.065307333862	33.782631675879
1	698	798.411049670411	46.760077431172
1	700	803.26514687897	50.2291823895
1	702	804.689801506751	48.732953149695
1	707	809.169964075338	36.970785466023
1	715	812.328494761064	38.404984531245
1	732	834.664541426868	60.278196031981
1	734	846.411685865705	69.302012111512
1	736	846.597339853381	68.591337402423
1	744	858.307597389757	76.843298221235
1	755	871.281291088466	81.591644662077
1	763	874.330031145716	79.507739838118
1	765	875.613566861819	80.626870683381
1	767	876.030426432561	67.570425539683
1	772	880.250644184287	69.977508301032
1	774	881.699317037421	70.29449117096
1	779	883.211377791363	69.167826452715
1	781	885.009017354325	58.976910448359
1	795	899.086621597176	71.859951406692
1	800	912.281798206182	82.818455496512
1	802	917.253103419416	87.576960366291
1	804	923.311788769076	68.587216594622
1	806	925.412173013904	67.508508212273
1	817	936.386927752848	78.028043071529
1	831	956.148100873632	93.532620281725
1	836	962.642021225849	96.454658379231
1	838	970.465354323662	98.729280750212
1	849	981.822666564257	109.33297154916
1	857	989.641053639992	111.95736076465
1	862	1002.479624938824	120.76054172333
1	864	1002.877389056423	114.36704943723
1	866	1003.880960060413	114.2789094574
1	883	1026.511538255155	129.48924714104
1	891	1039.01889101238	141.66511706106
1	893	1039.416415238691	132.33370685491
1	895	1039.464569836132	111.26494453184
1	897	1046.106340601566	117.31693208278
1	899	1053.685551640936	121.18024281018
1	904	1057.209579151857	118.85907398982
1	906	1057.220464801142	113.07949151173
1	908	1058.157844560333	110.58525203185
1	910	1062.13896476611	109.61080395925
1	912	1062.357802845115	105.52801582521
1	914	1070.506860986526	92.180922175037
1	919	1073.240504684492	92.900419667163
1	921	1082.18092464537	100.46988400533
1	923	1086.870273162836	104.71525911544
1	925	1088.113946999787	101.47473898972
1	927	1099.032017722837	102.05346236835
1	929	1100.757854549502	95.520992363996
1	937	1127.720307012114	115.94887256773
1	939	1128.996100715859	113.02356029468
1	944	1132.694958760526	115.23254481061
1	952	1137.827950348671	112.53633204635
1	954	1140.293197874825	111.58315777128
1	956	1140.626156007953	104.84889527655
1	958	1141.523894004209	87.397210754959
1	960	1146.051752798375	73.254823161472
1	968	1151.657495226051	25.761064760994
1	970	1152.90734876285	25.951951352561
1	972	1158.480186383247	27.126271612734
1	977	1160.880253396884	24.64226472491
1	979	1166.265455995269	29.683009795336
1	987	1170.011041223786	18.952399695301
1	989	1172.906050547621	21.835435523268
1	997	1189.011676012724	28.567461313624
1	999	1190.647338982015	23.472516354552
1	1001	1190.689708751869	22.800222219557
1	1003	1193.708448201472	15.132646637215
1	1005	1193.884850040084	8.535045089881
1	1010	1198.542576897296	0.473789178122
1	1036	1224.876039457652	21.554466184664
1	1038	1232.521356060099	24.726928269843
1	1046	1244.902179827588	35.708675463426
1	1048	1245.189421928475	30.227099680178
1	1053	1260.503725770464	40.603953496322
1	1055	1262.309965491024	40.95572443106
1	1057	1266.399936468819	43.702214394125
1	1065	1284.952428479005	61.838639839277
1	1070	1292.517391581895	57.573365396736
1	1072	1294.650928286675	53.776362530261
1	1074	1294.873627987039	37.685927471916
1	1079	1300.24046812723	31.591192903413
1	1081	1302.227229639515	23.320476558645
1	1086	1304.343216295861	11.968864229976
1	1088	1311.481876713524	12.171984040401
1	1096	1319.492832667077	16.659703599972
1	1101	1324.327225476485	12.617627320096
1	1109	1337.276179465319	23.986517144658
1	1123	1351.22041387301	30.535977080063
1	1128	1357.752764959091	25.447647114593
1	1130	1357.916321088003	22.921632862741
1	1135	1362.112165028216	23.909763313677
1	1143	1373.770851846287	35.512054326541
1	1145	1374.384563438563	29.592554286092
1	1150	1378.505846669594	30.520940048451
1	1152	1384.711274069227	32.248508733514
1	1157	1390.521181883898	31.376916832414
1	1165	1401.221388354965	33.279766205417
1	1167	1403.682706541597	35.720704307233
1	1175	1416.505251550308	38.728109125618
1	1177	1416.716696891345	29.202900508163
1	1179	1417.478247043807	24.91282966066
1	1181	1418.098969085554	17.38979330101
1	1186	1425.274183180993	21.404450991882
1	1188	1425.406794610799	16.6726761267
1	1193	1430.245607960587	9.73998328781
1	1195	1430.950445612221	5.123299692821
1	1206	1444.84683989301	3.940325689847
1	1211	1449.684734250615	6.822000068266
1	1213	1451.552503335935	7.15840888282
1	1230	1467.957608815518	21.324065881493
1	1235	1487.511529943229	31.551712793817
1	1240	1491.203853030197	30.286168948001
1	1242	1496.887806022574	33.927394669917
1	1259	1517.2346582205	54.237440112756
1	1264	1520.580041660294	53.213797244203
1	1272	1530.719488308708	43.962837842827
1	1277	1536.533492168319	48.182051360534
1	1282	1542.887117303547	40.23770756155
1	1284	1545.091695016104	37.474215676338
1	1286	1547.689240912397	39.740173911178
1	1288	1552.727441504184	42.059722373719
1	1296	1558.007538649531	46.796542832723
1	1298	1558.547048639116	39.918055433988
1	1300	1558.728552882359	36.578961828089
1	1302	1562.701423196183	37.658928008909
1	1304	1565.098848689493	30.030457424967
1	1306	1567.691072344686	28.119750432533
1	1308	1571.590536390403	18.515523100431
1	1316	1575.623604364479	20.589542261441
1	1318	1579.45862609026	5.6949974804
1	1320	1585.455695929018	10.618331332846
1	1331	1600.355487396772	9.468585417849
1	1333	1603.598015340937	11.763821314256
1	1335	1605.42021372844	7.749453110498
1	1343	1612.093297662637	2.99043458103
1	1348	1614.174557482203	4.732573355894
1	1356	1620.374352216776	8.026537540172
1	1358	1626.634392089974	10.331336504276
1	1360	1626.76455058409	8.640415749829
1	1365	1638.410990548981	1.320054353834
1	1373	1645.73507908764	3.561239012007
1	1375	1647.873549739636	3.539852322097
1	1389	1672.625331544516	12.538815800543
1	1391	1673.529396162851	9.123991575287
1	1402	1696.647807985668	31.620305104711
1	1416	1719.944708887333	49.75098648303
1	1430	1725.694460904752	41.647003580953
1	1438	1734.053043408223	39.941522716046
1	1440	1735.587139903752	40.420730545688
1	1451	1751.025130387056	46.024432214768
1	1453	1753.476038636074	47.394335008114
1	1455	1754.603063252147	47.667636508977
1	1457	1756.071506123336	48.948594751334
1	1465	1761.796471101754	41.388701318439
1	1467	1766.60476777577	44.805918880989
1	1469	1766.930483862376	44.11835865374
1	1471	1768.393920898271	44.47343365961
1	1476	1770.921080803222	43.222544737958
1	1481	1775.717495494487	44.912184513615
1	1483	1779.858500569129	41.728348611575
1	1485	1779.981075981499	38.65964341365
1	1491	1805.051674648248	61.058408920072
1	1493	1805.580533290264	49.399011565545
1	1495	1806.982291603994	45.346708485832
1	1497	1811.73873147098	43.331580613706
1	1499	1815.958874851412	43.60398877073
1	1501	1816.032494637746	35.81114658154
