version 2
run Testbench_1-755-20170516-19:19:48-55684
attr configname Testbench_1
attr datetime 20170516-19:19:48
attr experiment Testbench_1
attr inifile omnetpp.ini
attr iterationvars $0=200
attr iterationvars2 "$0=200, $repetition=55"
attr measurement $0=200
attr network Toll_road
attr processid 55684
attr repetition 55
attr replication #55
attr resultdir results
attr runnumber 755
attr seedset 755
param **.numBooths 3
param **.queue[*].serviceTime exponential(5.11s)
param **.source.interArrivalTime exponential(5.854s)
param **.source.numJobs 1000

vector 0  Toll_road.queue[0]  jobsProcessed:vector  ETV
attr interpolationmode  none
attr source  queueingTime
attr title  "jobs processed, vector"
vector 1  Toll_road.sink  lifeTime:vector  ETV
attr interpolationmode  none
attr title  "lifetime of arrived jobs, vector"
attr unit  s
0	3	12.458997262382	0
0	8	20.735117425465	0
0	13	27.543925055611	0
0	18	29.976929612883	0
0	28	53.778973354531	23.300160959066
0	30	53.787087594182	15.970888328056
0	38	61.117835697342	18.757349855119
0	46	65.179207307637	8.037159786834
0	54	71.266199525226	11.660896711476
0	56	74.212158832532	11.843012424624
0	58	75.559491804026	12.252570383065
0	60	89.282494949982	23.577224276595
0	71	95.476599529601	25.339020344609
0	73	99.300808745244	9.489540228716
0	78	102.678603207132	8.96819399136
0	86	109.649378099316	15.793724360223
0	91	124.213510007919	23.969359927511
0	93	125.744265715525	21.742076999522
0	101	131.012651387483	26.3801503899
0	106	134.132180578249	15.312658191777
0	114	142.528792230721	12.040374914849
0	116	142.897303836972	12.156707159373
0	127	154.438741587536	22.756540727106
0	129	156.317739854843	16.670904142046
0	131	158.083466283424	17.873603461874
0	133	160.886980295199	12.629259836019
0	138	163.14912390132	11.711944766244
0	143	165.495875408055	12.795562443906
0	145	166.128068046394	3.839431660908
0	147	169.942659941988	5.118553458567
0	153	172.508638089882	0
0	158	173.543243745241	0
0	174	190.314155619309	9.903637596565
0	176	190.456716566635	8.829410519223
0	184	205.298544987614	22.440276936899
0	186	206.715206986779	21.020815981373
0	191	208.116063163263	20.332625671801
0	199	213.592981543648	16.277681844431
0	204	221.59607636618	20.545569256901
0	206	224.175981616421	16.597849081321
0	211	227.372586263521	16.145471563851
0	213	229.170130242489	17.333582661336
0	215	230.396408572513	13.578214542204
0	217	246.663691754343	22.400149750562
0	223	250.63989704718	0
0	228	252.861901311326	0
0	233	257.570810512198	0
0	238	261.550009102248	0
0	243	272.380284871275	0
0	250	278.479733555553	3.343453544694
0	252	279.120249803093	1.005530774416
0	260	288.412444838844	6.609886987474
0	265	297.441346361173	9.068688469757
0	270	298.527501404624	2.024411458635
0	275	304.020874724179	5.703282243884
0	277	305.976185776352	4.117225093137
0	283	310.160018537483	0
0	288	326.120311818611	0
0	292	330.803966608875	2.801545133327
0	298	337.919904057015	0
0	303	340.19170191192	0
0	308	350.55436409077	0
0	321	362.932046989334	10.341371312776
0	341	375.430547115491	22.112840102521
0	343	380.825968539768	24.865846581703
0	345	389.503839832681	32.959556706677
0	347	390.149962310472	27.109968048656
0	349	391.966163482274	26.772116779491
0	354	397.390575569363	25.744658812073
0	356	401.952747159503	30.05513843936
0	367	411.298709228268	38.874114824012
0	369	428.043278874713	53.259873987808
0	377	431.040504677578	35.773732170487
0	382	435.419088936605	33.097899537366
0	384	436.612354900666	31.990609091951
0	386	440.199563490141	30.211230346237
0	388	442.739910661738	14.02897863084
0	396	450.804402355805	20.212071298523
0	398	462.504927899751	27.576370938953
0	403	467.024457372091	21.899167061914
0	405	467.342834820287	16.73023359024
0	410	471.259319011039	5.195016142817
0	418	476.126320614301	8.395550465846
0	420	476.78882995732	5.12293415459
0	422	482.548420083758	7.742990055637
0	428	484.770712225008	0
0	433	485.304614599533	0
0	437	488.7436148493	0.654866855766
0	442	491.39586604427	2.317424149826
0	453	512.877056787903	20.95565694561
0	461	514.479634378025	17.143910586925
0	463	518.759486707725	13.076542650492
0	465	521.282076048803	8.023275298838
0	467	522.886129784497	8.817959336737
0	473	534.565111119552	0
0	477	539.403845946658	0.936380635409
0	483	546.16449302326	0
0	487	550.508776598457	1.738604873385
0	495	559.794641407586	8.340912724932
0	497	569.946066702617	11.44819317199
0	502	573.198809137639	1.718072762678
0	513	586.145000282401	5.485882744772
0	515	586.532295683757	3.258563509596
0	523	592.055758696077	8.700296731871
0	525	594.871067181436	7.033360938697
0	530	596.679647381598	8.095864660205
0	538	614.360095548224	18.879318426298
0	540	619.713662891782	18.245728307921
0	542	621.6694578999	11.787966285027
0	548	637.547117230376	0
0	553	655.557473319022	0
0	558	660.037202395351	0
0	563	667.959113383347	0
0	568	678.159171947645	0
0	573	683.982470099724	0
0	578	689.953119607637	0
0	583	698.058216730888	0
0	588	700.23550622218	0
0	593	705.418689722437	0
0	598	713.276621508182	0
0	605	718.119335011869	4.526752384997
0	613	726.612745442058	10.520439469818
0	636	769.656760885988	45.535361526013
0	644	777.535942325066	51.488768909921
0	658	790.328113676495	57.975034142334
0	663	793.76862970197	44.026595494335
0	668	794.902485715698	42.96452192541
0	676	805.498523091506	50.100478729774
0	678	810.394308027521	51.991428935548
0	680	817.865789172248	53.351560904864
0	682	819.113849883891	52.42886952427
0	687	827.461857986917	57.684592949106
0	692	833.315571287959	62.893224102133
0	697	833.42061599158	53.81618808142
0	702	843.592495912936	59.415958775627
0	710	851.801970182877	66.751629504536
0	712	858.587700294229	70.050947480915
0	717	864.066537859279	71.248100797284
0	719	865.186075771973	70.70921606784
0	733	879.659932395826	84.284255088965
0	741	894.845362534675	93.89673638288
0	743	898.477373639901	71.703266533161
0	757	908.004922960594	78.325328145908
0	759	914.746930864377	81.384403751182
0	764	920.633066430315	78.082410505181
0	766	922.626309289288	72.867460193088
0	768	923.210741762688	71.554599289503
0	770	925.332389161484	65.281087993907
0	775	929.728265942734	63.328148324967
0	777	932.854378518158	64.323872853539
0	779	933.216450110886	60.683601778971
0	793	949.009270660988	73.327434942871
0	795	952.916117048822	72.15612423727
0	800	956.274775536463	72.771193371173
0	802	960.017303066237	59.49256250559
0	804	963.241539728284	61.384893946209
0	815	973.566988053115	70.901153142209
0	823	985.454745687861	80.91021383227
0	825	987.665047112953	68.899388521721
0	827	990.951102465183	64.879735160084
0	835	1001.898357055815	64.094834376428
0	846	1013.669296105783	74.416138813598
0	848	1016.292509157893	75.166534091265
0	856	1021.60665578632	73.293737140154
0	867	1032.71984555886	78.481011916589
0	872	1034.433114919137	69.66050158846
0	874	1035.011485802396	68.226562510922
0	876	1035.896170968131	63.591458082495
0	878	1037.113356290685	55.24637738819
0	883	1040.09209414058	55.427171949452
0	885	1044.806421029549	48.015082897956
0	887	1045.090479315635	43.297447273281
0	889	1054.925143245556	50.14575089538
0	891	1055.553555073862	47.603240922602
0	896	1058.219998531558	47.475510006578
0	898	1059.476854245631	40.65789012403
0	900	1060.15051572616	40.807525401499
0	917	1079.223914906478	54.730014150021
0	919	1080.314705986958	49.47381019532
0	921	1080.625377228053	48.929722114847
0	923	1080.875884582503	46.911253595264
0	925	1088.500065864895	50.956073750616
0	927	1095.373975168059	37.439177802759
0	929	1095.530168297325	34.759733562252
0	931	1096.674673749903	33.735569912474
0	936	1100.275562893382	36.027865770516
0	938	1104.315815972752	38.108594158638
0	943	1109.157394892101	41.231490556524
0	954	1120.975693839014	22.229090121726
0	956	1122.357546375576	17.650609228605
0	961	1123.741358256968	12.740405564174
0	966	1128.670583873884	12.568642025112
0	974	1130.701701899703	10.818072190176
0	976	1132.812003770442	9.472463555045
0	978	1134.288414507581	8.386569331985
0	983	1141.807949895924	12.559718329979
0	991	1153.548773150561	24.032692430762
0	994	1162.512017132593	23.608543091404
0	996	1163.023944994521	19.651240423326
0	998	1164.983055851242	12.148801535216
1	5	13.240135970337	0.781138707955
1	10	24.463345245012	3.728227819547
1	15	28.175959478985	0.632034423374
1	29	53.778973354531	23.802043741648
1	31	53.787087594182	23.308275198717
1	39	61.117835697342	23.301636431216
1	47	65.179207307637	22.818721465414
1	55	71.266199525226	14.124152004423
1	57	74.212158832532	14.606856018782
1	59	75.559491804026	13.190345396118
1	61	89.282494949982	25.975573529021
1	72	95.476599529601	29.771328856214
1	74	99.300808745244	29.163229560252
1	79	102.678603207132	12.867334690604
1	87	109.649378099316	15.938968883544
1	92	124.213510007919	30.357856268826
1	94	125.744265715525	25.500115635117
1	102	131.012651387483	27.01046267148
1	107	134.132180578249	29.499679580666
1	115	142.528792230721	23.709269844249
1	117	142.897303836972	12.4088865211
1	128	154.438741587536	23.698144909937
1	130	156.317739854843	24.635538994413
1	132	158.083466283424	18.436630570627
1	134	160.886980295199	20.677117473649
1	139	163.14912390132	14.89140344214
1	144	165.495875408055	14.058696272979
1	146	166.128068046394	13.427755082245
1	148	169.942659941988	7.654023556502
1	150	170.724877646112	5.900771162691
1	155	172.617568122239	0.108930032357
1	175	190.314155619309	16.770911874068
1	177	190.456716566635	10.046198543891
1	185	205.298544987614	23.671238940202
1	187	206.715206986779	23.856938936064
1	192	208.116063163263	22.421672157857
1	200	213.592981543648	25.809544052186
1	205	221.59607636618	24.280776666963
1	207	224.175981616421	23.125474507142
1	212	227.372586263521	19.794453728421
1	214	229.170130242489	17.943015542819
1	216	230.396408572513	18.55986099136
1	218	246.663691754343	29.845497724034
1	220	247.004342270487	22.740800266706
1	225	251.769835878293	1.129938831113
1	230	257.561450703327	4.699549392001
1	235	258.009954672339	0.439144160141
1	240	267.401444270157	5.851435167909
1	251	278.479733555553	6.099448684278
1	253	279.120249803093	3.983969792234
1	261	288.412444838844	10.297725810167
1	266	297.441346361173	15.638788509803
1	271	298.527501404624	10.154843513208
1	276	304.020874724179	7.51778477819
1	278	305.976185776352	7.658593296057
1	280	307.420236581436	5.561275898221
1	285	310.667006859496	0.506988322013
1	293	330.803966608875	4.683654790264
1	295	334.298063756249	6.295642280701
1	300	338.656050635086	0.736146578071
1	305	342.033575070551	1.841873158631
1	322	362.932046989334	12.377682898564
1	342	375.430547115491	22.839871438933
1	344	380.825968539768	27.508261526798
1	346	389.503839832681	33.543717874616
1	348	390.149962310472	33.605679184468
1	350	391.966163482274	28.926169220458
1	355	397.390575569363	32.19652886658
1	357	401.952747159503	30.306830402213
1	368	411.298709228268	39.401100508125
1	370	428.043278874713	55.618684470457
1	378	431.040504677578	56.257099790673
1	383	435.419088936605	40.152316429514
1	385	436.612354900666	34.291165501427
1	387	440.199563490141	35.577817681426
1	389	442.739910661738	32.751577517834
1	397	450.804402355805	22.093470324907
1	399	462.504927899751	31.912596842469
1	404	467.024457372091	32.095900411293
1	406	467.342834820287	22.21754451011
1	411	471.259319011039	20.646717780992
1	419	476.126320614301	10.062017746079
1	421	476.78882995732	9.058059808865
1	423	482.548420083758	10.882524281028
1	425	483.502553789706	8.697123761585
1	430	484.810381170549	0.039668945541
1	438	488.7436148493	3.439000249767
1	443	491.39586604427	3.307118050736
1	454	512.877056787903	23.798614893459
1	462	514.479634378025	22.558234535732
1	464	518.759486707725	21.423762916625
1	466	521.282076048803	15.59913199157
1	468	522.886129784497	9.627329034532
1	470	525.880180616522	11.812010168762
1	478	539.403845946658	4.838734827106
1	480	542.705228344934	4.237763033685
1	488	550.508776598457	4.344283575197
1	496	559.794641407586	11.024469682514
1	498	569.946066702617	18.492338019963
1	503	573.198809137639	14.700935607012
1	514	586.145000282401	14.66426390744
1	516	586.532295683757	5.873178146128
1	524	592.055758696077	8.782026521916
1	526	594.871067181436	11.51560521723
1	531	596.679647381598	8.841941138859
1	539	614.360095548224	25.776312826831
1	541	619.713662891782	24.232885769856
1	543	621.6694578999	20.201523316039
1	545	628.802848088455	18.921356473582
1	550	637.743328656895	0.196211426519
1	555	659.428327468609	3.870854149587
1	560	660.520890684826	0.483688289475
1	565	673.947685008706	5.988571625359
1	570	679.309858340371	1.150686392726
1	575	689.590867292743	5.608397193019
1	580	690.513015157757	0.55989555012
1	585	700.156379693222	2.098162962334
1	590	701.601877723971	1.366371501791
1	595	709.939659958436	4.520970235999
1	606	718.119335011869	4.842713503687
1	614	726.612745442058	13.020162815186
1	637	769.656760885988	53.564454913748
1	645	777.535942325066	53.414542965091
1	659	790.328113676495	64.28094026135
1	664	793.76862970197	61.415550167809
1	669	794.902485715698	45.160451508063
1	677	805.498523091506	53.560559301218
1	679	810.394308027521	54.996263665789
1	681	817.865789172248	59.462910080275
1	683	819.113849883891	54.599621616507
1	688	827.461857986917	60.776877627296
1	693	833.315571287959	63.538306250148
1	698	833.42061599158	62.998268805754
1	703	843.592495912936	63.988068002776
1	711	851.801970182877	67.625433045568
1	713	858.587700294229	73.537359615888
1	718	864.066537859279	75.529785045965
1	720	865.186075771973	72.367638709978
1	734	879.659932395826	85.183072691693
1	742	894.845362534675	99.469685227814
1	744	898.477373639901	97.528747488106
1	758	908.004922960594	81.230815853854
1	760	914.746930864377	85.067336049691
1	765	920.633066430315	87.27053931712
1	767	922.626309289288	80.075653364154
1	769	923.210741762688	73.451892666488
1	771	925.332389161484	73.676246688299
1	776	929.728265942734	69.676964775157
1	778	932.854378518158	66.454260900391
1	780	933.216450110886	64.685944446267
1	794	949.009270660988	76.476422329073
1	796	952.916117048822	77.234281330705
1	801	956.274775536463	75.514782724911
1	803	960.017303066237	76.513720900947
1	805	963.241539728284	62.716799167637
1	816	973.566988053115	71.71034227104
1	824	985.454745687861	82.788910776955
1	826	987.665047112953	83.120515257362
1	828	990.951102465183	72.185443873951
1	836	1001.898357055815	75.826989750716
1	847	1013.669296105783	75.865773426396
1	849	1016.292509157893	77.039351865708
1	857	1021.60665578632	80.480680719692
1	868	1032.71984555886	84.406926912694
1	873	1034.433114919137	80.194281276866
1	875	1035.011485802396	70.238872471719
1	877	1035.896170968131	69.111247676657
1	879	1037.113356290685	64.808643405049
1	884	1040.09209414058	58.225115238085
1	886	1044.806421029549	60.141498838421
1	888	1045.090479315635	48.299141184042
1	890	1054.925143245556	53.132111203202
1	892	1055.553555073862	50.774162723686
1	897	1058.219998531558	50.269684380298
1	899	1059.476854245631	48.732365720651
1	901	1060.15051572616	41.331551604559
1	918	1079.223914906478	59.880924581817
1	920	1080.314705986958	55.820805230501
1	922	1080.625377228053	49.784481436415
1	924	1080.875884582503	49.180229469297
1	926	1088.500065864895	54.535434877656
1	928	1095.373975168059	57.82998305378
1	930	1095.530168297325	37.595370932025
1	932	1096.674673749903	35.90423901483
1	937	1100.275562893382	37.336459055953
1	939	1104.315815972752	40.068118849886
1	944	1109.157394892101	42.950173077987
1	955	1120.975693839014	53.049789503437
1	957	1122.357546375576	23.610942658288
1	962	1123.741358256968	19.034421109997
1	967	1128.670583873884	17.66963118109
1	975	1130.701701899703	14.599760050931
1	977	1132.812003770442	12.928374060915
1	979	1134.288414507581	10.948874292184
1	984	1141.807949895924	15.906104720328
1	992	1153.548773150561	24.300541584616
1	995	1162.512017132593	32.995936412794
1	997	1163.023944994521	24.120470953332
1	999	1164.983055851242	21.610351280047
1	1001	1166.582928447735	13.748674131709
