version 2
run Testbench_1-1393-20170516-19:22:54-62360
attr configname Testbench_1
attr datetime 20170516-19:22:54
attr experiment Testbench_1
attr inifile omnetpp.ini
attr iterationvars $0=350
attr iterationvars2 "$0=350, $repetition=93"
attr measurement $0=350
attr network Toll_road
attr processid 62360
attr repetition 93
attr replication #93
attr resultdir results
attr runnumber 1393
attr seedset 1393
param **.numBooths 3
param **.queue[*].serviceTime exponential(5.11s)
param **.source.interArrivalTime exponential(5.854s)
param **.source.numJobs 1000

vector 0  Toll_road.queue[0]  jobsProcessed:vector  ETV
attr interpolationmode  none
attr source  queueingTime
attr title  "jobs processed, vector"
vector 1  Toll_road.sink  lifeTime:vector  ETV
attr interpolationmode  none
attr title  "lifetime of arrived jobs, vector"
attr unit  s
0	3	7.710745783632	0
0	16	17.022319674091	8.897702528845
0	18	18.509033946536	5.979000342505
0	35	42.294394133476	29.749901680165
0	40	45.707966762359	29.395994599627
0	42	49.949110350754	28.857725076408
0	44	49.970159693118	21.696226777129
0	49	58.515087306256	28.149537661756
0	51	58.600990369144	20.693515088007
0	56	60.899761790042	18.691789795553
0	64	70.304963203285	25.519893470664
0	69	72.746253355962	19.578753920047
0	71	73.006050086995	12.713993949394
0	76	74.443067047372	11.08803764599
0	84	86.214022495594	19.417633659366
0	86	95.040953667423	22.600143692547
0	88	99.688095318752	25.636597327578
0	114	140.638989199858	61.577462895518
0	119	147.161387541734	64.867114564087
0	124	154.975443135872	46.098419468457
0	126	155.188850477843	43.267752043643
0	128	159.671772665619	44.340325185724
0	133	165.441200317845	48.086548322827
0	138	168.045137354414	45.195794298426
0	146	174.511043092483	42.20519810051
0	151	177.98065192393	40.074959901753
0	162	191.723197168391	53.164216896427
0	164	197.69270161671	52.704561863693
0	166	199.609401305107	46.816985432179
0	168	200.482055535173	40.667637323612
0	170	207.120033614545	39.725732636915
0	172	210.209820447761	36.07421129636
0	174	217.09710397915	42.797359890547
0	176	222.945691250759	45.168999157935
0	178	223.47813672369	43.218008878916
0	183	236.46558225707	51.771853924167
0	197	258.107475660441	69.350375358067
0	199	262.612059377129	37.098835161367
0	204	269.907919400826	29.574293591568
0	209	274.937282489793	31.202667980112
0	211	281.454264955125	34.075900935455
0	216	285.437263033637	32.957340019782
0	218	286.463058112576	21.772392889294
0	220	288.103192249235	17.529456570726
0	231	300.368693565527	15.227740219716
0	233	301.89744703604	7.171018691575
0	235	303.501793008181	4.436537468263
0	237	309.419517502512	9.805450825125
0	243	313.560237816749	0
0	250	319.679179801364	4.905882216999
0	258	327.253947652587	9.654672976847
0	263	332.669341936978	10.083042661342
0	268	337.528014104479	11.336847982086
0	273	338.851868189155	10.506587277601
0	275	343.342505470079	6.005474259689
0	283	356.180293056254	18.043677095926
0	288	361.505947446598	7.202176376393
0	290	370.255813970965	15.457653973962
0	295	376.881778842475	16.752725844699
0	297	385.999252005519	11.076192622075
0	302	388.630195753473	0.750847329336
0	308	392.672496796066	0
0	318	400.745588604601	7.589483982981
0	332	409.487046993319	15.072482526896
0	337	413.796671355154	14.945086948876
0	339	415.453891874285	13.315270632075
0	341	416.728242674968	14.410993745288
0	343	417.051595700889	8.513522473214
0	351	425.889979363575	16.690540879479
0	353	429.171174554756	17.169738349139
0	355	429.420333619542	4.54607370466
0	357	431.384975385237	5.628821073174
0	363	445.49991126856	0
0	367	456.06315743875	5.475361187649
0	375	459.886062467671	3.301741274322
0	377	459.973960494559	3.373826519712
0	383	460.918243012326	0
0	388	471.70873981409	0
0	392	482.344188834565	6.722355889937
0	397	489.724701319687	5.472528595612
0	403	502.022255263557	0
0	408	506.326575345887	0
0	413	518.967345502827	0
0	418	524.430058436415	0
0	422	525.994699733899	1.338337680661
0	433	533.524035580209	7.383340485719
0	438	546.971337519048	18.932769076858
0	443	552.718429309093	20.909117549512
0	445	555.116507805409	8.516483422109
0	447	556.275678152398	4.317702673013
0	453	561.522864652209	0
0	457	576.366716713764	8.497113813468
0	463	582.343443768062	0
0	468	589.194541384801	0
0	475	599.911899813455	5.122206466371
0	477	601.476709486897	2.961696104608
0	482	612.943890331276	2.948381229621
0	487	613.477783083283	0.0360340294
0	493	617.407949548205	0
0	498	630.859660931651	0
0	503	633.015115253756	0
0	507	634.365652115189	0.958104919783
0	513	641.973421524948	0
0	518	655.115602187818	0
0	537	683.198458784992	22.041898778955
0	542	691.467176465901	29.295607854965
0	544	699.54067037159	35.558833286757
0	546	703.815847313529	38.229998702128
0	548	710.753849154457	41.836608325876
0	556	719.199727371163	48.75787856587
0	558	731.047531070342	41.628529164767
0	566	737.036817980423	25.479829746916
0	568	741.153111311235	23.847417112512
0	570	741.216101669504	8.853953370377
0	572	743.769785999266	9.152407555614
0	578	749.207414842272	0
0	582	750.05122774516	0.021649265441
0	587	752.740013225518	2.164440490481
0	592	759.411114505575	0.711727013344
0	600	768.700773969719	5.13172732421
0	611	780.47771924023	16.653070777379
0	613	784.490703167884	10.042804037842
0	615	784.517286692835	8.548855087962
0	620	785.997702102134	9.868085908858
0	628	805.774265679126	20.572499301677
0	630	805.88385846297	17.478053077127
0	632	806.230636143427	5.643108968283
0	637	808.754029346075	2.339634561616
0	645	823.374268065577	11.685505807161
0	647	834.032735631298	18.004173684879
0	652	839.796098044505	1.445765169767
0	660	844.287996486964	0.8333748664
0	665	846.261620109458	2.035229078469
0	667	847.174822299669	1.528136697081
0	673	855.501998570098	0
0	678	871.139718558844	0
0	691	896.380437946727	22.091511493501
0	693	899.005970955147	17.029085213507
0	695	901.026984118984	14.098951527349
0	703	925.798880416888	38.226563847744
0	705	930.608882028863	19.640492979811
0	710	931.152724737378	13.941732089365
0	715	939.493327386888	8.5708884794
0	717	940.40655458023	2.851686619707
0	723	941.873298602459	0
0	728	965.040385008501	0
0	733	965.471439089864	0
0	738	978.358928023007	0
0	754	987.448408841955	7.966303183999
0	756	987.487349644018	5.715011752721
0	758	989.39619261103	4.404497194983
0	760	989.396650538625	4.290054262486
0	762	991.187991028845	3.837107410095
0	768	1017.01273909618	0
0	772	1031.666635140314	7.010496237946
0	777	1034.531058694866	1.500050181627
0	783	1043.288442939108	0
0	788	1057.968764047338	0
0	792	1060.866907562239	0.049543007604
0	798	1067.130487852601	0
0	805	1076.207756289486	7.229249190863
0	807	1078.542437484469	6.41074502351
0	813	1099.390122852756	0
0	818	1110.752756632398	0
0	823	1115.061418318603	0
0	828	1122.478818854808	0
0	832	1124.458905949476	1.940462830027
0	840	1141.837545187934	10.122543112937
0	860	1166.382100444225	33.60791547701
0	862	1169.438431782072	26.10657403492
0	864	1172.155312404905	27.609944131352
0	869	1185.999196354078	30.823103522545
0	877	1192.056253208267	35.807339378058
0	879	1199.331234623262	42.200319833998
0	881	1201.588029923764	38.69921525871
0	883	1202.412329368747	30.238979502753
0	897	1206.065562892391	18.815282974753
0	899	1207.351592393751	17.34453533492
0	913	1229.170563393759	25.759024741062
0	915	1229.552614255984	25.954357867663
0	917	1231.08763794725	26.096843955718
0	922	1233.286911624721	27.484349418408
0	930	1239.93924418509	28.183576270446
0	935	1242.105932153258	27.730175156469
0	943	1250.376337087448	29.574406477255
0	945	1251.944129149212	24.084080997541
0	950	1258.58116697719	26.967311691876
0	955	1267.43086739045	31.925333027358
0	960	1272.305336856082	33.979392451481
0	974	1285.336210109128	44.987756458375
0	976	1286.219787498793	39.907874418061
0	987	1297.106493905808	47.148675282125
0	992	1304.022527855404	51.650406158266
0	1000	1318.014340335935	59.396198604226
0	1002	1322.340969346953	51.275589475941
0	1004	1322.990238958118	47.0458792375
0	1006	1325.928026027499	49.330268741574
0	1011	1327.313428190826	49.00016565036
0	1022	1335.280089387529	55.639509465187
0	1024	1339.123172540869	50.650840023691
0	1029	1342.514903235642	51.351038958489
0	1034	1343.635256705546	48.276073809961
0	1042	1355.17207736136	52.344913512121
0	1047	1356.096990498511	50.101589068116
0	1049	1356.645460255533	42.952399580281
0	1051	1360.627859216389	33.415424112179
0	1056	1366.427835920064	38.613585587897
0	1058	1366.603168683808	38.768933907591
0	1060	1368.427196819163	37.871205775362
0	1065	1370.673681931565	28.434099690456
0	1073	1376.468239524053	33.627337471435
0	1075	1377.062870046577	26.50311985043
0	1077	1384.483530905444	31.163076730988
0	1079	1388.813495712607	32.816265519194
0	1084	1393.908248827612	31.940720142435
0	1089	1399.786552358717	29.445804061299
0	1094	1407.082663724807	33.060018404654
0	1096	1409.285633325801	33.280526158531
0	1098	1411.862953266727	19.419183630948
0	1100	1416.425261121751	18.287666378686
0	1102	1419.646224902632	19.770202683012
0	1108	1439.278016076214	0
0	1113	1449.708590740579	0
0	1120	1456.293761056824	6.130075445899
0	1122	1457.494521327342	4.549603665364
0	1128	1467.225964307297	0
0	1133	1470.671336689172	0
0	1138	1472.279636070167	0
0	1143	1480.115705075557	0
0	1148	1492.598789919686	0
0	1153	1497.963354156879	0
0	1157	1499.793436475236	0.658997484731
0	1165	1505.506674658764	3.625886420547
0	1173	1516.458114592161	12.272026678475
0	1175	1516.547495132349	10.240986426994
0	1180	1520.636529847284	12.534293594748
0	1185	1523.540136508682	4.293642384132
0	1190	1529.338718359691	8.427433400923
0	1192	1530.947554111331	5.305828449874
0	1197	1546.929056959319	15.238634019203
0	1203	1551.711470037361	0
0	1208	1562.12761101103	0
0	1213	1577.842218748211	0
0	1217	1582.535102005868	1.076299804567
0	1223	1598.966249150841	0
0	1233	1610.144836352931	7.389813212589
0	1241	1616.113482129462	13.205083640036
0	1243	1618.324259419395	10.598678341845
0	1245	1622.240500675995	11.321266217503
0	1247	1624.500231514185	12.600895135956
0	1253	1625.058259284097	0
0	1257	1632.695468295485	3.499192806854
0	1263	1646.373585784703	0
0	1268	1649.203045491418	0
0	1275	1653.99690523568	1.942869884876
0	1277	1655.01095108549	1.472088692785
0	1283	1665.503510673588	0
0	1288	1677.033842655443	0
0	1292	1688.030046056452	7.812374298924
0	1300	1689.712844711592	1.574962315322
0	1302	1700.091383482148	10.637890016229
0	1308	1709.099382494323	0
0	1315	1717.797588434037	5.058003437143
0	1317	1717.843135998663	3.444864335869
0	1323	1729.874563743053	0
0	1328	1731.06253894265	0
0	1333	1735.874037770185	0
0	1338	1749.234982865708	0
0	1343	1756.684346299986	0
0	1347	1759.748645885825	1.906628202506
0	1352	1766.921763313493	5.867536513543
0	1366	1777.195527243291	10.09571138444
0	1380	1792.502294207474	19.236000484909
0	1388	1802.737262782189	28.264705325796
0	1393	1819.419649414598	44.456299132075
0	1395	1819.485911011103	36.577804438804
0	1397	1823.970895074583	40.267353577876
0	1402	1829.380766310566	41.041704341762
0	1404	1829.552237132722	39.697126620568
0	1415	1835.50828871633	37.90764710094
0	1420	1837.831383216594	37.010846956806
0	1422	1840.038540371398	24.532483868481
0	1424	1840.390379919039	13.37533978842
0	1426	1842.741364386407	11.388317412099
0	1428	1845.691934995089	13.431354895283
0	1430	1847.453060805676	14.574262025523
0	1438	1855.032938747334	17.44538595008
0	1440	1855.762536647129	7.916119279953
0	1445	1858.778570574183	8.513754936314
0	1450	1871.552588514239	13.230767339198
0	1455	1878.8899023379	19.172166434413
0	1460	1882.648947937673	7.361737240043
0	1462	1884.957615039209	3.211178179945
0	1467	1886.863629747829	1.679011066606
0	1473	1889.652375751676	0
0	1478	1893.27827206299	0
0	1482	1900.387713291763	1.972536597896
0	1488	1904.423603784257	0
0	1492	1908.198281826294	3.440825508989
0	1500	1913.697504690107	4.233567372931
0	1505	1915.051878967393	1.598558544911
0	1510	1918.321894857425	3.358162171738
0	1521	1926.024674909977	10.775317578044
0	1523	1927.642547885249	8.80447835978
0	1525	1927.973070529486	7.720018382116
0	1530	1931.82313198522	9.995792070144
0	1532	1932.685783775022	1.583227076931
0	1537	1941.747466636352	2.952263759218
0	1543	1962.316172666369	0
0	1548	1975.018545326857	0
0	1552	1985.519273522104	4.114966356357
0	1558	2006.83646719695	0
0	1563	2020.614512554694	0
0	1570	2022.335431949495	0.735462949957
0	1572	2023.571596296981	1.952935038889
0	1586	2043.776556079063	18.601344386681
0	1597	2048.925234399517	23.617634102539
0	1605	2059.417583646519	29.464489340207
0	1610	2061.342809977813	24.613723123324
0	1618	2068.558170138647	23.872962879935
0	1623	2076.581800058616	29.339587927938
0	1634	2083.508258614842	35.433930629269
0	1636	2085.145679870286	33.857883687646
0	1638	2088.255709587548	32.298886305439
0	1640	2092.327746605709	31.59674531014
0	1648	2099.743873880502	37.710235102472
0	1650	2103.403227711752	35.84395407964
0	1658	2112.16080282071	39.749411686803
0	1663	2119.119436589625	40.276169581197
0	1674	2126.423392724	46.970807667596
0	1685	2137.596092874254	54.130344033995
0	1690	2142.431846707157	47.282496870947
0	1695	2143.33146964579	44.877534381552
0	1697	2144.041365326343	34.181794834665
0	1711	2154.259502587293	42.83126763665
0	1713	2154.732090608508	36.433793090609
0	1715	2160.354863877531	38.231450539105
0	1720	2169.690817594438	45.337298630699
0	1725	2174.202798504008	48.936109661681
0	1728	2174.690076384636	44.047231259775
0	1730	2179.027519496363	46.7423345944
0	1732	2179.23098663819	45.214833153553
0	1734	2181.34617293143	41.804235682894
0	1736	2184.389650384117	41.80581598443
0	1738	2185.723115561595	40.532720152329
0	1740	2194.700961383496	49.098447726893
0	1742	2199.304994785102	51.221994944493
0	1744	2217.038015599599	64.200642087057
0	1746	2221.266349687548	57.46564854082
0	1748	2223.239023040817	53.022833853716
1	17	17.022319674091	9.311573890459
1	19	18.509033946536	10.38441680129
1	36	42.294394133476	29.764360529445
1	41	45.707966762359	33.163474309048
1	43	49.949110350754	33.637138188022
1	45	49.970159693118	28.878774418772
1	50	58.515087306256	30.241154390267
1	52	58.600990369144	28.235440724644
1	57	60.899761790042	22.992286508905
1	65	70.304963203285	28.096991208796
1	70	72.746253355962	27.961183623341
1	72	73.006050086995	19.83855065108
1	77	74.443067047372	14.151010909771
1	85	86.214022495594	22.858993094212
1	87	95.040953667423	28.244564831195
1	89	99.688095318752	27.247285343876
1	115	140.638989199858	66.587491208684
1	120	147.161387541734	68.099861237394
1	125	154.975443135872	72.681170158225
1	127	155.188850477843	46.311826810428
1	129	159.671772665619	47.750674231419
1	134	165.441200317845	50.10975283795
1	139	168.045137354414	50.690485359396
1	147	174.511043092483	51.661700036495
1	152	177.98065192393	45.674806931957
1	163	191.723197168391	53.817505146214
1	165	197.69270161671	59.133721344746
1	167	199.609401305107	54.62126155209
1	169	200.482055535173	47.689639662245
1	171	207.120033614545	47.305615402984
1	173	210.209820447761	42.815519470131
1	175	217.09710397915	42.961494827749
1	177	222.945691250759	48.645947162156
1	179	223.47813672369	45.701444630866
1	184	236.46558225707	56.205454412296
1	198	258.107475660441	73.413747327538
1	200	262.612059377129	73.854959074755
1	205	269.907919400826	44.394695185064
1	210	274.937282489793	34.603656680535
1	212	281.454264955125	37.719650445444
1	217	285.437263033637	38.058899013967
1	219	286.463058112576	33.983135098721
1	221	288.103192249235	23.412527025953
1	232	300.368693565527	29.794957887018
1	234	301.89744703604	16.756493690229
1	236	303.501793008181	8.775364663716
1	238	309.419517502512	10.354261962594
1	240	312.52187130154	12.907804624153
1	251	319.679179801364	6.118941984615
1	259	327.253947652587	12.480650068222
1	264	332.669341936978	15.070067261238
1	269	337.528014104479	14.941714828843
1	274	338.851868189155	12.660702066762
1	276	343.342505470079	14.997224558525
1	284	356.180293056254	18.843261845864
1	289	361.505947446598	23.36933148627
1	291	370.255813970965	15.95204290076
1	296	376.881778842475	22.083618845472
1	298	385.999252005519	25.870199007743
1	303	388.630195753473	13.707136370029
1	305	392.165965938615	4.286617514478
1	319	400.745588604601	8.073091808535
1	333	409.487046993319	16.330942371699
1	338	413.796671355154	19.382106888731
1	340	415.453891874285	16.602307468007
1	342	416.728242674968	14.589621432758
1	344	417.051595700889	14.734346771209
1	352	425.889979363575	17.3519061359
1	354	429.171174554756	19.97173607066
1	356	429.420333619542	17.418897413925
1	358	431.384975385237	6.510715470355
1	360	439.837858693151	14.081704381088
1	368	456.06315743875	10.56324617019
1	376	459.886062467671	9.29826621657
1	378	459.973960494559	3.38963930121
1	380	460.722759673916	4.122625699069
1	385	464.752498662677	3.834255650351
1	393	482.344188834565	10.635449020475
1	398	489.724701319687	14.102868375059
1	400	498.080029365932	13.827856641857
1	405	504.522879394856	2.500624131299
1	410	508.668726129276	2.342150783389
1	415	523.425587566188	4.458242063361
1	423	525.994699733899	1.564641297484
1	434	533.524035580209	8.867673526971
1	439	546.971337519048	20.830642424558
1	444	552.718429309093	24.679860866903
1	446	555.116507805409	23.307196045828
1	448	556.275678152398	9.675653769098
1	450	558.176064557686	6.218089078301
1	458	576.366716713764	14.843852061555
1	460	577.511911215023	9.642308314727
1	465	583.168491846244	0.825048078182
1	476	599.911899813455	10.717358428654
1	478	601.476709486897	6.687016139813
1	483	612.943890331276	14.428876948987
1	488	613.477783083283	3.482273981628
1	490	613.510215248649	0.068466194766
1	495	622.744943404298	5.336993856093
1	500	631.297342044665	0.437681113014
1	508	634.365652115189	1.350536861433
1	510	639.345339737286	5.93779254188
1	515	642.726817306421	0.753395781473
1	538	683.198458784992	28.082856597174
1	543	691.467176465901	30.310616459864
1	545	699.54067037159	37.369101760654
1	547	703.815847313529	39.834010228696
1	549	710.753849154457	45.168000543056
1	557	719.199727371163	50.282486542582
1	559	731.047531070342	60.605682265049
1	567	737.036817980423	47.617816074848
1	569	741.153111311235	29.596123077728
1	571	741.216101669504	23.910407470781
1	573	743.769785999266	11.407637700139
1	575	747.496782121902	12.87940367825
1	583	750.05122774516	0.843812902888
1	588	752.740013225518	2.710434745799
1	593	759.411114505575	8.835541770538
1	601	768.700773969719	10.001386477488
1	612	780.47771924023	16.908672594721
1	614	784.490703167884	20.666054705033
1	616	784.517286692835	10.069387562793
1	621	785.997702102134	10.029270497261
1	629	805.774265679126	29.64464948585
1	631	805.88385846297	20.682092085521
1	633	806.230636143427	17.824830757584
1	638	808.754029346075	8.166502170931
1	646	823.374268065577	16.959873281118
1	648	834.032735631298	22.343973372882
1	653	839.796098044505	23.767536098086
1	661	844.287996486964	5.937663612226
1	666	846.261620109458	2.806998488894
1	668	847.174822299669	2.94843126868
1	670	853.713526553583	8.066840950995
1	675	856.497339382038	0.99534081194
1	692	896.380437946727	25.240719387883
1	694	899.005970955147	24.717044501921
1	696	901.026984118984	19.050098377344
1	704	925.798880416888	38.870847825253
1	706	930.608882028863	43.036565459719
1	711	931.152724737378	20.184335688326
1	716	939.493327386888	22.282334738875
1	718	940.40655458023	9.484115672742
1	720	940.597951461957	3.043083501434
1	725	942.292689484722	0.419390882263
1	730	965.381541011722	0.341156003221
1	735	970.14775624301	4.676317153146
1	755	987.448408841955	9.089480818948
1	757	987.487349644018	8.005243986062
1	759	989.39619261103	7.623854719733
1	761	989.396650538625	4.404955122578
1	763	991.187991028845	6.081394752706
1	765	994.94727959723	7.59639597848
1	773	1031.666635140314	14.653896044134
1	778	1034.531058694866	9.874919792498
1	780	1034.532246258362	1.501237745123
1	785	1043.986004126695	0.697561187587
1	793	1060.866907562239	2.898143514901
1	795	1061.316297847517	0.498933292882
1	806	1076.207756289486	9.077268436885
1	808	1078.542437484469	9.563930385846
1	810	1080.562706143542	8.431013682583
1	815	1108.417077125924	9.026954273168
1	820	1110.902224997995	0.149468365597
1	825	1118.517609295233	3.45619097663
1	833	1124.458905949476	1.980087094668
1	841	1141.837545187934	19.319102068485
1	861	1166.382100444225	34.667098369228
1	863	1169.438431782072	36.664246814857
1	865	1172.155312404905	28.823454657753
1	870	1185.999196354078	41.453828080525
1	878	1192.056253208267	36.880160376734
1	880	1199.331234623262	43.082320793053
1	882	1201.588029923764	44.4571151345
1	884	1202.412329368747	39.523514703693
1	898	1206.065562892391	33.892213026397
1	900	1207.351592393751	20.101312476113
1	914	1229.170563393759	39.163506334928
1	916	1229.552614255984	26.141075603287
1	918	1231.08763794725	27.489381558929
1	923	1233.286911624721	28.296117633189
1	931	1239.93924418509	34.136681978777
1	936	1242.105932153258	30.350264238614
1	944	1250.376337087448	36.000580090659
1	946	1251.944129149212	31.142198539019
1	951	1258.58116697719	30.721118825519
1	956	1267.43086739045	35.817012105136
1	961	1272.305336856082	36.79980249299
1	975	1285.336210109128	47.010265704527
1	977	1286.219787498793	45.87133384804
1	988	1297.106493905808	50.794580825076
1	993	1304.022527855404	54.064709231721
1	1001	1318.014340335935	65.642218638797
1	1003	1322.340969346953	63.722827615244
1	1005	1322.990238958118	51.924859087106
1	1007	1325.928026027499	49.983666306881
1	1012	1327.313428190826	50.715670904901
1	1023	1335.280089387529	56.966826847063
1	1025	1339.123172540869	59.482592618527
1	1030	1342.514903235642	54.042570718464
1	1035	1343.635256705546	52.471392428393
1	1043	1355.17207736136	59.812894465775
1	1048	1356.096990498511	53.269826649272
1	1050	1356.645460255533	50.650058825138
1	1052	1360.627859216389	46.934798541137
1	1057	1366.427835920064	39.215400815854
1	1059	1366.603168683808	38.788918351641
1	1061	1368.427196819163	40.592962042946
1	1066	1370.673681931565	40.117690887764
1	1074	1376.468239524053	34.228657282944
1	1076	1377.062870046577	34.221967993959
1	1078	1384.483530905444	33.923780709297
1	1080	1388.813495712607	35.493041538151
1	1085	1393.908248827612	37.911018634199
1	1090	1399.786552358717	37.81902367354
1	1095	1407.082663724807	36.741915427389
1	1097	1409.285633325801	35.262988005648
1	1099	1411.862953266727	35.857846099457
1	1101	1416.425261121751	23.981491485972
1	1103	1419.646224902632	21.508630159567
1	1105	1421.879877837753	22.003855618133
1	1110	1443.947701761385	4.669685685171
1	1121	1456.293761056824	6.585170316245
1	1123	1457.494521327342	7.330835716417
1	1125	1458.284267257977	5.339349595999
1	1130	1467.414777900284	0.188813592987
1	1135	1470.793601037462	0.12226434829
1	1140	1473.648104356987	1.36846828682
1	1145	1484.252494118307	4.13678904275
1	1150	1492.90984278519	0.311052865504
1	1158	1499.793436475236	1.830082318357
1	1166	1505.506674658764	6.372235668259
1	1174	1516.458114592161	14.577326353944
1	1176	1516.547495132349	12.361407218663
1	1181	1520.636529847284	14.330021141929
1	1186	1523.540136508682	15.437900256146
1	1191	1529.338718359691	10.092224235141
1	1193	1530.947554111331	10.036269152563
1	1198	1546.929056959319	21.287331297862
1	1200	1548.361841100636	16.67141816052
1	1205	1555.071787174152	3.360317136791
1	1210	1563.261160104376	1.133549093346
1	1218	1582.535102005868	4.692883257657
1	1220	1588.385298444893	6.926496243592
1	1234	1610.144836352931	11.17858720209
1	1242	1616.113482129462	13.35845898912
1	1244	1618.324259419395	15.415860929969
1	1246	1622.240500675995	14.514919598445
1	1248	1624.500231514185	13.580997055693
1	1250	1624.568309112898	12.668972734669
1	1258	1632.695468295485	7.637209011388
1	1260	1635.623680728292	6.427405239661
1	1265	1647.801758485425	1.428172700722
1	1276	1653.99690523568	4.793859744262
1	1278	1655.01095108549	2.956915734686
1	1280	1656.459457764931	2.920595372226
1	1285	1665.801149696025	0.297639022437
1	1293	1688.030046056452	10.996203401009
1	1301	1689.712844711592	9.495172954064
1	1303	1700.091383482148	11.953501085878
1	1305	1705.497569927751	16.044076461832
1	1316	1717.797588434037	8.698205939714
1	1318	1717.843135998663	5.103551001769
1	1320	1722.93229348145	8.534021818656
1	1325	1730.878784690754	1.004220947701
1	1330	1734.043639374903	2.981100432253
1	1335	1745.28834072745	9.414302957265
1	1340	1754.153304753518	4.91832188781
1	1348	1759.748645885825	3.064299585839
1	1353	1766.921763313493	9.079745630174
1	1367	1777.195527243291	16.141300443341
1	1381	1792.502294207474	25.402478348623
1	1389	1802.737262782189	29.470969059624
1	1394	1819.419649414598	44.947091958205
1	1396	1819.485911011103	44.52256072858
1	1398	1823.970895074583	41.062788502284
1	1403	1829.380766310566	45.677224813859
1	1405	1829.552237132722	41.213175163918
1	1416	1835.50828871633	45.653178204176
1	1421	1837.831383216594	40.230741601204
1	1423	1840.038540371398	39.21800411161
1	1425	1840.390379919039	24.884323416122
1	1427	1842.741364386407	15.726324255788
1	1429	1845.691934995089	14.338888020781
1	1431	1847.453060805676	15.19248070587
1	1439	1855.032938747334	22.154139967181
1	1441	1855.762536647129	18.174983849875
1	1446	1858.778570574183	10.932153207007
1	1451	1871.552588514239	21.28777287637
1	1456	1878.8899023379	20.568081162859
1	1461	1882.648947937673	22.931212034186
1	1463	1884.957615039209	9.670404341579
1	1468	1886.863629747829	5.117192888565
1	1470	1887.760855388416	2.576236707193
1	1475	1890.453317075446	0.80094132377
1	1483	1900.387713291763	7.109441228773
1	1485	1901.723314118936	3.308137425069
1	1493	1908.198281826294	3.774678042037
1	1501	1913.697504690107	8.940048372802
1	1506	1915.051878967393	5.587941650217
1	1511	1918.321894857425	4.868574434943
1	1522	1926.024674909977	11.06094222429
1	1524	1927.642547885249	12.393190553316
1	1526	1927.973070529486	9.135001004017
1	1531	1931.82313198522	11.57007983785
1	1533	1932.685783775022	10.858443859946
1	1538	1941.747466636352	10.644909938261
1	1540	1945.491221454007	6.696018576873
1	1545	1963.468096045814	1.151923379445
1	1553	1985.519273522104	10.500728195247
1	1555	1985.530343053866	4.126035888119
1	1560	2009.520394412921	2.683927215971
1	1571	2022.335431949495	1.720919394801
1	1573	2023.571596296981	1.971627297443
1	1587	2043.776556079063	22.157894820971
1	1598	2048.925234399517	23.750022707135
1	1606	2059.417583646519	34.109983349541
1	1611	2061.342809977813	31.389715671501
1	1619	2068.558170138647	31.829083284158
1	1624	2076.581800058616	31.896592799904
1	1635	2083.508258614842	36.266046484164
1	1637	2085.145679870286	37.071351884713
1	1639	2088.255709587548	36.967913404908
1	1641	2092.327746605709	36.3709233236
1	1649	2099.743873880502	39.012872584933
1	1651	2103.403227711752	41.369588933722
1	1659	2112.16080282071	44.601529188598
1	1664	2119.119436589625	46.708045455718
1	1675	2126.423392724	47.580125715572
1	1686	2137.596092874254	58.14350781785
1	1691	2142.431846707157	58.966097866898
1	1696	2143.33146964579	48.18211980958
1	1698	2144.041365326343	45.587430062105
1	1712	2154.259502587293	44.399932095615
1	1714	2154.732090608508	43.303855657865
1	1716	2160.354863877531	42.056566359632
1	1721	2169.690817594438	47.567404256012
1	1726	2174.202798504008	49.849279540269
1	1729	2174.690076384636	49.423387542309
1	1731	2179.027519496363	48.384674371502
1	1733	2179.23098663819	46.945801736227
1	1735	2181.34617293143	47.330019446793
1	1737	2184.389650384117	44.847713135581
1	1739	2185.723115561595	43.139281161908
1	1741	2194.700961383496	49.51056597423
1	1743	2199.304994785102	53.702481128499
1	1745	2217.038015599599	68.95501575899
1	1747	2221.266349687548	68.428976175006
1	1749	2223.239023040817	59.438321894089
1	1751	2238.436624133601	68.2204349465
