version 2
run Testbench_1-169-20170516-19:17:50-51692
attr configname Testbench_1
attr datetime 20170516-19:17:50
attr experiment Testbench_1
attr inifile omnetpp.ini
attr iterationvars $0=50
attr iterationvars2 "$0=50, $repetition=69"
attr measurement $0=50
attr network Toll_road
attr processid 51692
attr repetition 69
attr replication #69
attr resultdir results
attr runnumber 169
attr seedset 169
param **.numBooths 3
param **.queue[*].serviceTime exponential(5.11s)
param **.source.interArrivalTime exponential(5.854s)
param **.source.numJobs 1000

vector 0  Toll_road.queue[0]  jobsProcessed:vector  ETV
attr interpolationmode  none
attr source  queueingTime
attr title  "jobs processed, vector"
vector 1  Toll_road.sink  lifeTime:vector  ETV
attr interpolationmode  none
attr title  "lifetime of arrived jobs, vector"
attr unit  s
0	3	6.482856174876	0
0	7	13.216000624496	6.042122802783
0	12	13.633187950065	0.005851143749
0	17	25.531909510184	0.576580354195
0	23	40.973457090146	0
0	30	43.259478749658	1.332303168982
0	38	45.831136045643	2.657394950423
0	40	46.381075632717	2.646863278583
0	42	49.63729163492	4.542574691584
0	56	59.726105101813	9.387446480922
0	58	61.017115255688	9.565454518223
0	69	78.677074471006	21.93690883098
0	74	81.602912624814	24.756979377079
0	82	88.334047291877	21.056187465322
0	90	102.078611026528	33.180513250535
0	98	113.690585402073	35.308341078703
0	100	115.807548119686	37.10950578415
0	102	119.276835306321	36.889974698698
0	104	119.366112935521	35.496541012675
0	109	122.361812393662	26.585368224804
0	114	125.180953415543	27.235598076298
0	116	125.564571488131	20.130826706902
0	121	127.62890933087	20.664376764503
0	123	131.21054106222	9.582530360676
0	128	137.279868173485	12.756306319964
0	130	145.345506317937	19.079356922714
0	135	152.0827797944	16.424716043642
0	140	165.966089379925	18.589934125088
0	142	166.250628383757	11.836243656277
0	147	185.56230906913	5.286470767197
0	153	227.468336674246	0
0	160	231.177020661337	0.894109806948
0	162	233.336807223037	2.336986284776
0	170	238.746580363599	3.617594467147
0	172	242.379932533483	6.7379805031
0	178	258.884971744416	0
0	183	261.073620877293	0
0	187	271.892916769782	4.460798610021
0	192	275.678918895928	3.371178157695
0	198	276.354037681071	0
0	203	281.363772294771	0
0	210	288.66665995381	5.472819449684
0	212	295.059306650487	10.283469925476
0	217	299.687302032062	1.567992142977
0	223	302.495647534282	0
0	228	314.813794754753	0
0	232	320.298977543102	1.274312367199
0	238	333.769104380805	0
0	243	346.616424668287	0
0	248	350.804377271836	0
1	8	13.216000624496	6.73314444962
1	13	13.633187950065	6.459310128352
1	18	25.531909510184	11.904572703868
1	20	26.370220525115	1.414891369126
1	31	43.259478749658	2.286021659512
1	39	45.831136045643	3.903960464967
1	41	46.381075632717	3.207334537497
1	43	49.63729163492	5.903079280786
1	57	59.726105101813	14.631388158477
1	59	61.017115255688	10.678456634797
1	70	78.677074471006	27.225413733541
1	75	81.602912624814	24.862746984788
1	83	88.334047291877	31.488114044142
1	91	102.078611026528	34.800751199973
1	99	113.690585402073	44.79248762608
1	101	115.807548119686	37.425303796316
1	103	119.276835306321	40.578792970785
1	105	119.366112935521	36.979252327898
1	110	122.361812393662	38.492240470816
1	115	125.180953415543	29.404509246685
1	117	125.564571488131	27.619216148886
1	122	127.62890933087	22.195164549641
1	124	131.21054106222	24.246008495853
1	129	137.279868173485	15.651857471941
1	131	145.345506317937	20.821944464416
1	136	152.0827797944	25.816630399177
1	141	165.966089379925	30.308025629167
1	143	166.250628383757	18.87447312892
1	148	185.56230906913	31.14792434165
1	150	186.599061595594	6.323223293661
1	161	231.177020661337	3.708683987091
1	163	233.336807223037	3.053896368648
1	171	238.746580363599	7.746759425338
1	173	242.379932533483	7.250946637031
1	175	250.18446891192	14.542516881537
1	180	259.003152512618	0.118180768202
1	188	271.892916769782	10.819295892489
1	193	275.678918895928	8.246800736167
1	195	276.146062858086	3.838322119853
1	200	278.683778721958	2.329741040887
1	211	288.66665995381	7.302887659039
1	213	295.059306650487	11.865466146361
1	218	299.687302032062	14.911465307051
1	220	301.800706294858	3.681396405773
1	225	303.222639265473	0.726991731191
1	233	320.298977543102	5.485182788349
1	235	324.968849008316	5.944183832413
1	240	334.006661913052	0.237557532247
1	245	346.738850215845	0.122425547558
1	251	359.641341693047	8.836964421211
