version 2
run Testbench_2-59-20170508-12:31:10-124820
attr configname Testbench_2
attr datetime 20170508-12:31:10
attr experiment Testbench_2
attr inifile omnetpp.ini
attr iterationvars ""
attr iterationvars2 $repetition=59
attr measurement ""
attr network Toll_road
attr processid 124820
attr repetition 59
attr replication #59
attr resultdir results
attr runnumber 59
attr seedset 59
param **.numBooths 3
param **.queue[*].serviceTime exponential(5.11s)
param **.source.interArrivalTime exponential(5.854s)
param **.source.numJobs 1000

vector 1  Toll_road.queue[1]  jobsProcessed:vector  ETV
attr interpolationmode  none
attr source  queueingTime
attr title  "jobs processed, vector"
vector 3  Toll_road.sink  lifeTime:vector  ETV
attr interpolationmode  none
attr title  "lifetime of arrived jobs, vector"
attr unit  s
vector 0  Toll_road.queue[0]  jobsProcessed:vector  ETV
attr interpolationmode  none
attr source  queueingTime
attr title  "jobs processed, vector"
vector 2  Toll_road.queue[2]  jobsProcessed:vector  ETV
attr interpolationmode  none
attr source  queueingTime
attr title  "jobs processed, vector"
0	13	36.453117510307	0
0	21	42.747623728083	0
0	43	66.414952304906	0
0	48	67.9748785307	0
0	57	74.560124938287	2.180375282568
0	103	115.97998336953	0
0	118	125.039245140456	0
0	131	140.34294516858	9.358158278521
0	150	151.79347687053	0
0	170	177.467073956055	0
0	180	187.325759348702	0
0	203	200.91941293698	4.585244954506
0	205	201.972873932627	2.637576472099
0	214	212.705179327745	12.337665145315
0	221	217.924152941989	7.846491295324
0	231	231.81443780597	17.511860709157
0	241	237.962740970219	1.215599895654
0	338	351.447639649403	0
0	343	356.070060804759	0
0	348	367.671881149144	0
0	363	399.182284552111	0
0	374	411.365057826788	0
0	388	419.043766087227	1.12288488338
0	403	428.927150661373	0
0	416	441.628910786871	0
0	428	451.753511525964	0
0	448	482.93936999655	0
0	471	502.217083439459	0
0	482	506.687449717145	0
0	520	576.833546554699	0
0	534	595.591742738059	0
0	558	640.458882554758	0
0	591	664.288957168418	0
0	603	673.80324643231	3.516415616778
0	605	674.161298594242	2.238415599252
0	614	677.102796298268	0
0	628	694.361671180307	0
0	632	704.378336214514	2.86583027701
0	641	709.97714346574	0
0	647	711.920847209328	0.756209908223
0	666	740.47102984371	0
0	671	742.898842745334	0
0	681	765.95191925543	0
0	701	807.639751232827	0
0	729	834.69075691017	0
0	740	846.884298364612	2.344602349122
0	753	857.935025202986	0
0	758	869.678174082745	0
0	778	902.563789271208	0
0	790	918.21192993965	12.038541396253
0	792	919.65726373257	12.464759081743
0	811	952.850457784546	0
0	816	955.139903188779	0
0	826	960.970367832139	0
0	837	966.404656437715	0
0	859	988.111685310529	0
0	878	1002.508415125856	0
0	896	1015.87948263521	0
0	908	1025.485386874528	0
0	973	1100.659298171522	0
0	1004	1122.867475396177	0
0	1010	1127.110897149539	3.100700492891
0	1017	1132.978223315112	1.467274896592
0	1046	1169.743959442239	0
0	1058	1179.747443289546	0
0	1084	1205.671242129569	0
0	1096	1209.639428018435	0
0	1103	1215.579370659833	0
0	1118	1255.40789925786	0
0	1122	1260.498836249098	0.463722946459
0	1128	1268.646528808846	0
0	1138	1279.796021949417	0
0	1142	1280.999772240916	0.195941980796
0	1153	1293.148378445961	0
0	1158	1300.508686003435	0
0	1171	1310.826339577642	0
0	1213	1365.735498866077	0
0	1236	1396.742704593213	0
0	1253	1416.311163401914	0
0	1268	1437.396225124569	0
0	1298	1473.677071791045	19.455995214724
0	1368	1583.557784798971	0
0	1383	1609.983271637959	0
0	1387	1612.797692119535	1.298894812341
0	1396	1624.020443386887	0
0	1403	1631.495605028595	0
0	1418	1646.08210124057	0
0	1423	1649.391982230783	0
0	1428	1663.0064965366	0
0	1433	1669.70407785493	0
0	1437	1670.341403036089	0.444110677604
0	1442	1672.285847189988	1.086723851943
0	1471	1681.532794808653	0
0	1486	1709.567378161625	0
0	1506	1723.707252357941	0
0	1513	1728.133165984341	0
0	1553	1782.58014406875	0
0	1571	1801.035504560203	0
0	1578	1821.507581776554	0
0	1583	1827.682905003971	0
0	1636	1885.934205215708	0
0	1658	1897.288585685507	10.559365253228
0	1669	1906.016541605569	19.079986700664
0	1676	1915.409483051564	20.149078938395
0	1683	1926.248503166564	26.396499042837
0	1685	1926.719496737966	25.599561699156
0	1690	1931.354710427682	23.058166220479
0	1712	1940.671481533988	10.680689559618
0	1716	1942.570497164048	11.179406534253
0	1724	1946.399582793414	12.718819486076
0	1726	1951.416713359379	17.471814759112
0	1746	1973.925442843141	34.809611062942
0	1751	1975.236248770977	30.260503070683
0	1753	1975.969891069105	17.972122275007
0	1768	1991.930330297818	32.737416014043
0	1774	1995.446179038628	0
0	1788	2002.900710355986	2.09283262645
0	1801	2012.531385189201	0
0	1810	2018.831742090892	1.262271917253
0	1833	2027.978967537517	0
0	1851	2054.571861129729	0
0	1866	2073.528917005705	0
0	1883	2101.711342303451	22.582173854165
0	1885	2102.926680543803	16.646581162062
0	1896	2116.03582909722	22.036001488448
0	1898	2121.98112997367	17.125394213561
0	1903	2127.92143570617	19.610781106807
0	1905	2130.100332354493	16.695285478317
0	1907	2137.135196836746	13.13208065848
0	1954	2171.167373354374	0
0	1969	2176.024159557902	0
0	1992	2204.133854427627	0
0	2015	2226.545990012181	11.061847682117
0	2020	2231.944257629123	8.064559707631
0	2052	2255.384634275469	0
0	2073	2265.416552319083	0
0	2083	2279.516669401873	0
0	2090	2282.111276795814	1.253982752743
0	2108	2295.977618119747	0
0	2118	2314.128947884763	0
0	2137	2328.530599201077	13.384608116582
0	2146	2331.619638770067	0
0	2161	2342.370014514094	0
0	2191	2361.572111253516	0
0	2203	2369.877717567334	0
0	2248	2424.743469367823	0
0	2258	2441.757457693933	0
0	2263	2449.829763599753	0
0	2313	2487.491446099707	0
0	2331	2511.338883093582	0
0	2353	2542.143599112271	0
0	2363	2548.653179054118	0
0	2373	2558.140915127996	0
0	2420	2585.745439129966	0
0	2434	2592.86337991975	0
0	2443	2612.650878089264	0
0	2453	2629.077389327729	0
0	2463	2639.073749621431	5.315306218755
0	2476	2652.810863062785	16.543293610803
0	2501	2681.611036419444	40.703087495541
0	2511	2685.309899977608	41.124053925303
0	2519	2691.559350621642	35.786145195806
0	2521	2692.428788966284	35.021701372514
0	2530	2696.623488128402	12.557267583177
0	2532	2701.88293826311	13.436351856451
0	2537	2702.805386818156	0.279786545699
0	2546	2707.242974829713	0
0	2566	2734.217006085866	0
0	2573	2743.15148577903	0
0	2578	2745.563350028134	0
0	2583	2747.580709436798	0
0	2598	2797.95379384709	0
0	2605	2799.510435416009	1.470402947633
0	2631	2833.301029143487	0
0	2653	2845.097668909688	5.317070148679
0	2657	2859.03661975204	18.74317515622
0	2674	2873.118022390614	0
0	2698	2901.024576748645	0
0	2707	2906.194202214815	1.930438196382
0	2723	2938.801760249498	0
0	2741	2978.503790700924	0
0	2748	2989.673451742767	0
0	2757	2996.204177456407	5.02489241828
0	2795	3033.034689414696	0
0	2801	3038.57905579345	5.539883712766
0	2811	3060.298009196482	0
0	2818	3065.442191704406	4.882362120277
0	2847	3090.18733193991	0
0	2891	3143.922109345155	0
0	2908	3159.408031537309	0
0	2945	3189.430129289828	25.89328043876
0	2951	3194.333348335783	29.508233730631
0	2971	3211.427632784451	25.797161563603
0	2988	3219.620229512701	22.747092094339
0	2993	3225.030911779097	6.061068045319
0	3017	3247.507983276704	21.661743754909
0	3032	3263.002777440433	1.085348359158
0	3041	3266.351693085653	0
0	3051	3269.265100381658	0
0	3066	3280.548371159405	0
0	3070	3282.033967484835	0.800222323894
0	3086	3296.480049344749	0
0	3098	3303.248037762193	0
0	3123	3328.909582098639	0
0	3148	3359.74195434774	0
0	3157	3372.402173620689	0.822880363589
0	3163	3374.176239288301	0
0	3178	3390.424896908927	0
0	3201	3469.463947916873	0
0	3218	3494.93245808901	0
0	3223	3519.976542318281	0
0	3253	3558.58889612506	0
0	3258	3581.585870370347	0
0	3267	3590.567968594284	5.32490927858
0	3276	3593.185539096904	0
0	3326	3643.501817774032	0
0	3338	3657.131179754909	0
0	3379	3726.298323539544	0
0	3403	3743.324899953878	0
0	3416	3752.661561616267	0
0	3427	3761.140275678233	4.709904148426
0	3451	3788.347047279893	0
0	3467	3805.431945056269	0
0	3477	3811.418174967722	5.304498267965
0	3487	3823.396997213213	1.302292638213
0	3496	3834.664409661603	0
0	3557	3886.887348089491	0
0	3563	3890.231113352242	0.171915520333
0	3591	3910.986935936815	0
0	3618	3935.208676165238	0
0	3653	4010.793705152028	0
0	3657	4012.322421952522	0.266650957962
0	3663	4021.360418631444	0
0	3688	4047.855192589743	0
0	3708	4069.3979564634	0
0	3724	4084.402068128973	0
0	3769	4131.898812400738	0
0	3801	4164.147601411774	0
0	3818	4185.907383460698	0
0	3849	4220.20032260953	0
0	3883	4249.49505603287	0
0	3898	4260.963217969503	0
0	3903	4262.327205175561	0
0	3913	4267.040369584825	3.97643717333
0	3926	4280.028749650178	0
0	3931	4288.078931852721	0
0	3953	4336.709627892893	0
0	3958	4340.49763916007	0
0	3969	4358.322819990955	0
0	4003	4381.150433458853	0
0	4021	4407.875320938253	0
0	4028	4427.285743215297	0
0	4032	4436.472736530982	0.6949843313
0	4038	4443.218250588897	0
0	4046	4463.875235910022	0
0	4056	4475.997940280902	0
0	4067	4484.056079885835	7.375511526993
0	4084	4494.848397944122	0
0	4089	4503.026102708209	0
0	4117	4541.635934723656	0
0	4128	4545.896174418301	0
0	4133	4549.043300694225	0
0	4148	4564.136219413404	0
0	4168	4601.01882146305	0
0	4176	4630.416056936307	0
0	4186	4654.695397846085	0
0	4190	4656.873569786642	0.254883312561
0	4201	4658.775684540724	0
0	4223	4682.87940658652	0
0	4228	4692.065561845016	0
0	4235	4702.003536227234	9.248463575646
0	4245	4713.630892421077	13.3084615312
0	4272	4754.674963807153	0
0	4283	4763.389270490964	0
0	4298	4804.807958249641	0
0	4331	4834.641311926558	0
0	4338	4848.258503497523	0
0	4358	4874.345435926833	0
0	4379	4908.414993784626	0
0	4386	4911.641885622371	0
0	4398	4917.912412491609	1.50324284123
0	4423	4924.99269893926	0.82500835112
0	4430	4930.823353592682	1.759122597435
0	4445	4938.832061460587	5.36061479972
0	4447	4940.308410898202	1.702947475895
0	4471	4962.269025642812	0
0	4499	5002.343939057267	0
0	4509	5013.113030009349	0
0	4516	5016.279526320412	0.098381746934
0	4538	5028.599129746304	0
0	4553	5039.507640890802	9.572551967976
0	4555	5041.704654016123	4.299683583089
0	4568	5068.921607115047	0
0	4581	5084.491462780124	0
0	4588	5094.721395596591	0
0	4603	5109.282180019179	0
0	4608	5128.848617035287	0
0	4648	5163.847836014117	0
0	4658	5174.382697416238	0
0	4691	5230.287531558298	0
0	4698	5254.041129601809	0
0	4713	5277.625005665507	0
0	4723	5287.757587562249	8.583747281149
0	4732	5293.625589105444	13.407564445186
0	4745	5307.864184247658	13.702037074081
0	4747	5309.14686937464	5.852972445252
0	4758	5325.44790378407	0
0	4768	5330.884670928721	0
0	4784	5342.830428462611	0
0	4798	5353.27389004741	0
0	4826	5379.065496190857	0
0	4836	5391.282309600004	0
0	4850	5395.63595437649	0.103826763566
0	4863	5404.717949643906	0
0	4878	5419.999095755396	0
0	4894	5440.160203214539	0
0	4931	5484.873801186478	0
0	4961	5513.505536777459	0
0	4965	5514.868682095455	0.552580234478
0	4996	5543.882443237898	0
0	5005	5548.283645290242	2.715086484191
0	5013	5565.097376656774	0
0	5023	5585.730548162112	0
0	5028	5594.435222171003	0
0	5125	5688.922654345207	0
0	5131	5695.70519827135	3.502097234323
0	5141	5701.497565184894	0
0	5168	5717.94326068861	0
0	5180	5725.758952943556	3.821734724104
0	5185	5728.277547029124	4.878186227711
0	5193	5733.420371365334	0
0	5198	5740.305510668066	0
0	5237	5781.899181166032	0
0	5278	5842.228012796799	0
0	5302	5862.009806762349	0
0	5317	5877.785094879221	15.669863693978
0	5323	5887.613835591526	0
0	5333	5899.758794104935	8.438674668544
0	5338	5901.858174997431	0.354161973306
0	5355	5916.829696153066	6.863058303039
0	5360	5917.402486216414	5.790259970799
0	5381	5950.820120739334	0
0	5398	5975.208955331778	0
0	5409	5981.059937383985	0
0	5418	5990.105595830725	3.976266967816
0	5429	6009.521320796682	0
0	5453	6026.236600771119	0
0	5461	6031.266358853999	0
0	5473	6053.933950331969	0
0	5488	6062.310274115361	0
0	5503	6068.152854940557	4.175241778614
0	5510	6071.943001077238	3.683902689722
0	5518	6082.750748611793	0
0	5528	6109.439505096881	0
0	5533	6120.903003145835	0
0	5563	6181.369344468706	0
0	5573	6196.612067931513	0
0	5591	6212.083437001623	0
0	5606	6227.359413527988	0
0	5643	6253.642064806863	0
0	5648	6266.327402777491	0
0	5652	6275.86653548959	5.706393294287
0	5684	6322.053420118413	0
0	5698	6343.520324629638	0
0	5708	6362.300873977496	16.122117860463
0	5710	6365.48627736239	12.973382604632
0	5717	6370.241131118518	7.978079634015
0	5728	6388.034704515986	0
0	5776	6435.767521229202	0
0	5793	6455.390207531614	0
0	5818	6509.214900091941	0
0	5831	6523.609443719685	0
0	5851	6532.958219152988	0
0	5878	6577.838639560175	0
0	5959	6696.272901780807	0
0	5968	6702.432936437082	0
0	5983	6727.996596856338	0
0	5996	6737.556523075948	0
0	6002	6742.916802010472	4.704687231606
0	6031	6796.157767523717	0
0	6038	6804.887747679823	6.424127819506
0	6048	6806.342634524691	1.878264380936
0	6050	6808.117755883516	2.276859092989
0	6093	6847.013933317053	0
0	6126	6920.103944216229	0
0	6133	6923.802500278043	0
0	6138	6953.105203966129	0
0	6161	6978.177997016743	0
0	6169	6983.263917579369	0
0	6178	6989.302762426294	1.161436630026
0	6186	6990.255664217044	1.844364066493
0	6188	6991.926919745222	2.593014469312
0	6201	7006.087542733559	0
0	6218	7031.635612135384	0
0	6251	7084.676206078457	0
0	6283	7108.514369013652	0
0	6288	7110.474493030594	0
0	6298	7115.057312136092	0
0	6316	7126.606650354354	0
0	6334	7148.205529876904	0
0	6353	7179.351484792874	0
0	6357	7196.705189762347	9.784634451415
0	6362	7198.792714799705	1.893440555486
0	6367	7206.343735381323	7.384167201333
0	6373	7223.515116714454	0
0	6377	7224.089914454169	0.230606974771
0	6431	7294.656149850813	0
0	6441	7300.938989781501	0
0	6448	7304.48876197001	0.879424277669
0	6466	7321.069696636553	0
0	6493	7353.272850523728	0
0	6502	7361.381789808869	3.336051544205
0	6512	7368.524210553359	5.213726613094
0	6523	7381.642566061393	0
0	6551	7403.400097152838	0
0	6557	7412.870232370096	0.123249883508
0	6562	7416.160087001454	0.11017381831
0	6576	7428.959427886808	11.06741455415
0	6595	7440.483207117357	0
0	6602	7447.429103657382	0
0	6634	7477.184598856873	0
0	6648	7506.350196198412	0
0	6668	7537.120962250971	0
0	6688	7574.605035131302	0
0	6693	7578.502477573497	0
0	6703	7582.446518188245	3.474578118364
0	6705	7584.323877614717	4.435758438832
0	6722	7611.574776373932	0
0	6726	7615.247939108021	3.082951162017
0	6743	7623.661858046857	0
0	6763	7649.00574296236	0
0	6823	7746.410122708686	0
0	6843	7787.52562419037	0
0	6876	7839.94859998684	0
0	6896	7851.546579787659	0
0	6902	7855.742447101584	2.876946090521
0	6912	7864.255409874245	3.912547278351
0	6918	7885.430825447832	0
0	6928	7906.488852164218	0
0	6933	7910.147815254295	0
0	6944	7926.58912006681	0
0	6966	7965.055345028636	0
0	6988	7993.43686388722	0
0	7006	8004.66654356393	0
0	7017	8016.500802730639	9.36233896893
0	7022	8019.479546637369	0.396138427852
0	7028	8021.323914582834	0
0	7069	8070.953134778449	0
0	7075	8073.723151955914	0.80062400104
0	7082	8083.78790320289	4.245635192392
0	7090	8089.418785673205	2.607601261656
0	7103	8092.725976610559	2.999481317091
0	7105	8095.144424330344	4.901599697845
0	7107	8095.945699430396	4.592916246354
0	7139	8133.31379040837	0
0	7149	8138.042609937903	1.085381577722
0	7175	8151.599341867216	6.163008753481
0	7177	8161.260835947714	10.675999533773
0	7191	8164.267055322594	0
0	7227	8209.011089579805	0
0	7234	8212.43665296398	0
0	7250	8228.493490669383	0
0	7281	8272.42160901723	0
0	7312	8294.935221590711	0
0	7321	8305.613163413083	0
0	7338	8318.184595576881	0
0	7351	8321.974027679381	2.746187434206
0	7356	8325.459497529697	5.277123324726
0	7358	8325.926560262963	4.791640356951
0	7360	8326.151093829155	4.52413938738
0	7371	8341.664859944173	0
0	7383	8360.833612147517	0
0	7431	8406.117090267663	0
0	7443	8416.341465266219	8.995027502302
0	7445	8416.694389015373	8.042157869227
0	7454	8434.386772229189	0
0	7476	8456.235649106764	0
0	7485	8469.839417731365	5.187144899252
0	7490	8471.617405759256	3.641268593783
0	7518	8496.095385285961	0
0	7533	8520.842916940125	0
0	7538	8524.642216543132	0
0	7546	8536.243373936687	0
0	7563	8541.14941424728	0
0	7581	8576.256972016712	0
0	7589	8583.197721000501	0
0	7603	8598.470902412452	0
0	7608	8612.931133950508	0
0	7616	8618.33900018821	0
0	7661	8689.294573369378	0
0	7676	8705.622720761675	0
0	7681	8714.123734322597	0
0	7688	8722.907263003269	0
0	7692	8728.197489079069	0.653787722828
0	7698	8736.063881324083	0
0	7703	8742.593692240018	0
0	7714	8754.478875907942	0
0	7744	8787.647882586136	0
0	7792	8833.385539252982	0
0	7805	8847.953442876329	3.48819032474
0	7807	8849.973081091581	3.878531486433
0	7828	8866.799500246726	8.070073389015
0	7830	8868.498178729799	9.493348118415
0	7835	8870.708419735176	10.265687127265
0	7842	8883.351950756566	0.034631122581
0	7847	8889.074384009281	2.515700023141
0	7853	8894.584998606189	0
0	7863	8911.11673891534	0
0	7876	8931.94802698722	0
0	7888	8942.932913297192	0
0	7941	9058.043327527915	0
0	7963	9086.160671320082	0
0	7971	9105.658289718792	0
0	7983	9126.608074931146	0
0	8019	9185.355366928272	0
0	8031	9193.248995911614	0
0	8048	9208.32690715388	0
0	8064	9223.446781518496	0
0	8094	9245.333722780849	0
0	8101	9251.272129965026	0
0	8113	9275.51614758003	0
0	8117	9279.736375529701	1.122872324256
0	8134	9293.712222262534	0
0	8151	9313.032584988394	0
0	8158	9327.405748752042	0
0	8176	9341.843510563008	0
0	8188	9383.174520143808	0
0	8192	9394.951048567173	4.734847109746
0	8198	9396.211705450095	0
0	8243	9460.100657386312	0
0	8261	9483.732642474081	0
0	8271	9492.367678443875	0
0	8288	9526.98056490146	0
0	8298	9544.001912231878	0
0	8303	9548.602991236163	0
0	8311	9553.984382807104	0
0	8323	9568.386972543618	0
0	8328	9575.230493253623	0
0	8343	9584.394997305204	0
0	8363	9605.890297982722	0
0	8383	9631.803224691689	0
0	8388	9643.138599898164	0
0	8448	9743.341991826894	0
0	8464	9750.934265187587	0
0	8482	9762.774799645591	0.493648468302
0	8487	9765.897090980349	2.015902430541
0	8493	9766.665955324547	0
0	8503	9770.667974035558	3.895442713761
0	8505	9772.318153163938	5.076783342469
0	8516	9776.696085556979	0
0	8531	9781.646956437077	0
0	8538	9783.550960203527	0
0	8553	9792.117422119491	0
0	8564	9795.438034683996	0
0	8573	9800.614407229103	0
0	8580	9808.89008202154	7.295031909208
0	8582	9810.349211922284	4.144825291271
0	8597	9820.225544962014	0
0	8626	9885.306383770499	0
0	8631	9885.851916094439	0
0	8642	9899.64645077383	10.801336517206
0	8648	9909.818223391292	0
0	8696	9985.947999413149	0
0	8708	9999.441815798025	0
0	8712	10005.765334054433	4.426924569109
0	8717	10006.348890898362	0.543988920784
0	8767	10099.524389415149	0
0	8778	10107.537009030964	6.825067287043
0	8788	10111.09505702557	7.017245235137
0	8803	10122.49949052431	0
0	8814	10127.66180493175	0
0	8826	10141.40323052634	0
0	8832	10146.950423155002	2.963079179674
0	8838	10158.91760041605	0
0	8842	10165.738307267256	6.321902843782
0	8866	10196.857367494755	0
0	8873	10216.758388846238	0
0	8891	10240.132802617083	0
0	8923	10306.645620990038	0
0	8938	10364.361572633935	0
0	8953	10384.146079000307	0
0	8966	10392.778995907009	0
0	8984	10421.303413238487	0
0	9013	10459.482387366374	0
0	9026	10462.291212350006	0.790661211403
0	9045	10472.203117338514	0
0	9053	10474.913821048675	0
0	9062	10480.770241626848	0
0	9077	10487.64658473695	0
0	9094	10498.546876599016	0
0	9136	10540.110558343754	0
0	9149	10560.771475841222	0
0	9159	10574.955260616481	0
0	9177	10592.780561052134	2.433552223498
0	9183	10596.469980031574	0
0	9188	10607.189879914696	0
0	9193	10608.247472091481	0
0	9201	10617.958241490179	0
0	9212	10633.340381819956	12.401079536672
0	9227	10650.938281433151	2.737878030796
0	9244	10659.294496204056	0
0	9258	10677.703524275681	0
0	9278	10718.489408768411	0
0	9288	10739.245463181923	0
0	9303	10753.714070575639	0
0	9316	10767.161204587718	0
0	9366	10839.487434368826	0
0	9374	10853.956681941875	0
0	9383	10867.469342920547	0
0	9388	10871.842645582143	0
0	9393	10876.235608465489	0
0	9397	10877.488223739726	1.093910956536
0	9403	10883.169230833834	0
0	9443	10924.18870061181	0
0	9447	10927.981409702182	1.873066784615
0	9462	10943.755259502054	4.764213899599
0	9473	10950.165940866901	0
0	9488	10961.17773611531	0
0	9497	10966.513973693558	0.089484849662
0	9502	10971.969967900567	4.566673038902
0	9511	10983.793656777533	0
0	9528	11010.508860052199	0
0	9545	11029.568540992914	0
0	9559	11042.569640093588	0
0	9578	11056.160818223931	0
0	9583	11069.865612222082	0
0	9607	11096.966517622175	0
0	9615	11101.677828414078	1.112704490533
0	9631	11110.529073662576	0
0	9651	11125.241362822891	0
0	9657	11132.910082600506	4.410922149853
0	9668	11141.786372537277	0
0	9698	11184.839216258971	0
0	9703	11190.069831612745	0
0	9717	11195.911877730627	1.679578146819
0	9735	11203.946582010186	0
0	9788	11244.481753266171	0
0	9793	11259.572578431197	0
0	9800	11268.045660505587	4.937588845901
0	9802	11276.561623179681	11.497853503896
0	9808	11279.249158007964	0
0	9816	11287.437792358943	0
0	9823	11291.48039686321	0
0	9851	11316.7086795404	16.59437087633
0	9860	11319.181423096612	13.941382430834
0	9873	11340.319887118591	0
0	9877	11343.571601036365	2.128503059127
0	9890	11362.12381805731	16.441835037837
0	9895	11376.778420660049	28.175594166591
0	9900	11384.526928320698	5.716199602647
0	9906	11387.403577119426	0
0	9926	11398.707540783093	0
0	9938	11417.749690310341	0
0	9948	11441.542481850608	0
0	9956	11463.289932426834	0
0	9993	11520.601990883488	0
0	9998	11529.666037493854	0
0	10023	11582.796140818527	0
0	10078	11677.343294901011	0
0	10091	11707.022438537508	0
0	10105	11721.610358064529	3.205535055856
0	10150	11773.103964349342	0
0	10172	11795.178502041424	16.512829092986
0	10183	11799.058178079969	2.6486017464
0	10199	11808.99407209581	0
0	10218	11839.688876405428	0
0	10229	11844.218938622803	0
0	10244	11865.070150265046	0
0	10263	11874.287942645784	0
0	10274	11888.83103562424	0
0	10283	11906.843710833262	0
0	10287	11908.302099437924	0.787937043779
0	10298	11942.60726150381	0
0	10308	11962.663526944412	0
0	10313	11966.501811684578	0
0	10378	12037.745353414491	0
0	10383	12039.690321455512	0
0	10391	12055.631738509879	0
0	10398	12060.095542503757	0
0	10410	12073.155033909415	7.82041397943
0	10420	12081.067255188974	3.218670368767
0	10428	12088.961461658694	0
0	10433	12099.701198047428	0
0	10438	12113.4405048871	0
0	10442	12115.135758926241	0.798192873695
0	10451	12126.201418740599	0
0	10462	12134.165812888331	7.919611405607
0	10472	12142.980994988637	5.257661630145
0	10484	12147.365774479764	0
0	10503	12184.751370813284	0
0	10507	12190.909415481193	2.138638235569
0	10528	12226.00964149252	0
0	10533	12245.694596265892	0
0	10558	12286.314044049282	0
0	10613	12355.549178596537	0
0	10622	12363.149091941071	3.259474235878
0	10628	12365.916081807218	0
0	10649	12399.021652635172	0
0	10678	12439.861735308224	0
0	10683	12443.02788187491	0
0	10693	12461.846595973773	0
0	10737	12512.23189149254	0
0	10759	12532.120793272299	0
0	10766	12536.430294893541	0
0	10772	12544.078539774015	0.375385439527
0	10791	12562.413246045922	0
0	10811	12587.411039924332	0
0	10816	12588.683913446018	0
0	10828	12607.482519029941	0
0	10844	12625.786112582003	0
0	10853	12632.997343355447	0
0	10863	12653.921021701285	0
0	10873	12675.298984517471	0
0	10895	12689.587402811017	10.174772202102
0	10897	12712.925450466533	24.530819670345
0	10911	12752.514873552837	0
0	10918	12764.988372737483	0
0	10951	12785.469353453657	0
0	10966	12807.693012975541	0
0	11008	12854.816978556972	0
0	11013	12859.966655072252	0
0	11031	12873.664356983609	0
0	11038	12881.526534801237	0
0	11046	12889.466509493795	0
0	11061	12914.259638025754	0
0	11071	12921.240237145157	0
0	11083	12935.801202425346	0
0	11087	12944.654383393721	2.763361559954
0	11097	12948.172395449764	0.672099262958
0	11103	12953.084393116426	0
0	11110	12956.836154144475	0.034889589343
0	11136	12982.109411907166	0
0	11191	13032.937724346624	0
0	11208	13047.593954145172	0
0	11223	13077.500585126071	0
0	11268	13170.342278456957	0
0	11292	13214.602603125017	0
0	11312	13236.829098848498	7.025677021874
0	11321	13255.542040834502	0
0	11325	13261.867490972731	4.257190455651
0	11343	13271.392707174284	0
0	11348	13271.883838616312	0
0	11369	13321.25121742151	0
0	11375	13322.288529737636	0.361473331213
0	11403	13338.093598359463	0
0	11418	13359.382137307403	0
0	11430	13378.183390091818	1.466048644122
0	11436	13381.163056763508	0
0	11443	13388.15929165506	0
0	11453	13394.614503170623	0
0	11473	13427.065844798108	0
0	11507	13455.795755914683	0
0	11519	13466.038797220567	0
0	11530	13475.56215913619	7.736254661111
0	11536	13478.467274294127	0
0	11546	13484.6445484484	0
0	11558	13524.427130433085	0
0	11576	13544.896991116967	0
0	11606	13576.218889491137	0
0	11612	13580.219338556629	0.880608558007
0	11618	13586.160794778934	0
0	11633	13630.191149793099	0
0	11637	13637.555020401762	1.475857144454
0	11696	13736.206018778356	0
0	11706	13744.19312571599	0
0	11721	13759.928082320343	0
0	11727	13766.400507237629	3.529905969105
0	11781	13799.906921119041	0
0	11793	13834.973919658083	0
0	11798	13840.973556988029	0
0	11808	13864.90107442709	0
0	11828	13880.105588675066	0
0	11843	13890.122386287301	0
0	11850	13895.808347665267	2.788912185494
0	11863	13915.429434855503	0
0	11868	13930.272818628507	0
0	11873	13940.66161720789	0
0	11881	13971.635242848583	0
0	11885	13974.651098905796	2.860548353806
0	11903	13990.452259794463	0
0	11919	14004.504526766342	0
0	11927	14008.196229546951	2.824951458574
0	11932	14013.935004983152	2.277433686438
0	11948	14048.883941317626	0
0	11969	14073.20631120561	0
0	11975	14074.813119215764	1.265531626159
0	11993	14112.511765352536	0
0	12011	14140.026813196395	0
0	12022	14154.68292260041	6.882484273342
0	12032	14171.694496844211	16.048976530337
0	12046	14195.948116901723	0
0	12053	14224.086836740898	0
0	12060	14237.025608558526	11.68520388233
0	12062	14237.207718897663	9.831364736939
0	12073	14252.231268507844	0
0	12078	14266.298997367189	0
0	12093	14276.895878056466	0
0	12100	14280.873078567792	2.87282925479
0	12128	14350.717157677216	0
0	12143	14379.094011806077	0
0	12152	14395.884677840446	3.25231231197
0	12181	14424.623415543013	0
0	12228	14471.509434671893	0
0	12232	14473.73649827829	0.133473967064
0	12238	14482.716827021799	0
0	12256	14507.269904331539	0
0	12261	14515.922468306778	0
0	12268	14541.098082284703	0
0	12282	14567.30901628042	26.019518886072
0	12293	14571.026480080112	0
0	12298	14575.150796635567	0
0	12303	14578.202349970352	0
0	12307	14584.877984768568	2.097398541616
0	12313	14604.581719177643	0
0	12322	14623.136602040297	8.639452486002
0	12334	14638.964620897786	0
0	12356	14649.830363698005	0
0	12388	14686.380599838773	0
0	12401	14695.371635157058	0
0	12419	14712.77051107239	0
0	12433	14725.120899152478	0
0	12445	14729.146903560841	2.54365948204
0	12447	14731.864167604324	2.983497661082
0	12463	14759.393647534935	0
0	12468	14762.584836813242	0
0	12493	14782.197215234156	0
0	12498	14787.807680571441	0
0	12516	14809.009402447509	0
0	12546	14840.074990517462	0
0	12552	14849.854887870066	8.990741997522
0	12563	14864.543072994224	0
0	12586	14877.649365233617	0
0	12593	14901.620683062164	0
0	12608	14924.78622760683	0
0	12617	14934.14759784824	2.01620560815
0	12654	14971.097570907472	35.731479019755
0	12656	14973.11728150999	18.7371738496
0	12658	14974.216775942366	13.182757631786
0	12662	14975.74979621048	9.532713078645
0	12668	14983.407546941228	0
0	12673	14997.298932991944	0
0	12689	15036.155687105721	0
0	12728	15079.08107885472	0
0	12748	15117.501773993283	0
0	12753	15128.321378903202	0
0	12760	15131.746848412786	1.241400557593
0	12776	15147.784975453064	15.121326117552
0	12778	15152.462180938859	17.044822152505
0	12785	15155.677978899668	17.372928939337
0	12795	15164.583406819723	4.615321392865
0	12803	15169.629604688758	1.51698273226
0	12815	15178.931909674956	3.246202377577
0	12823	15200.712341445714	0
0	12828	15212.627580893392	0
0	12843	15220.633032897804	0
0	12869	15250.107305522484	0
0	12879	15272.034113416655	0
0	12897	15280.704589482204	4.748212518392
0	12905	15285.598193034431	8.994597478853
0	12928	15317.267898469817	0
0	12933	15325.673998715271	0
0	12945	15350.72158698975	12.10644662258
0	12950	15354.070141910276	13.782876436566
0	12952	15357.100079603686	6.323322805665
0	12990	15391.175526982191	0
0	13006	15411.953868907287	0
0	13038	15452.380805635327	0
0	13064	15502.700194578963	0
0	13076	15512.98996256304	0
0	13088	15518.131389386136	0
0	13093	15541.22312553807	0
0	13107	15556.746994265153	8.188104780754
0	13146	15597.202416053677	0
0	13153	15603.192196019781	0
0	13163	15621.667826303441	0
0	13168	15626.345182226311	0
0	13173	15631.612803409853	0
0	13188	15650.541007478263	0
0	13203	15664.82206887061	0
0	13223	15684.458165393971	0
0	13233	15694.941509547642	0
0	13248	15711.126591960568	0
0	13268	15724.388572250875	0
0	13273	15729.538462189859	0
0	13298	15762.67412729249	0
0	13302	15773.431109275022	2.399590639981
0	13314	15782.405510241128	0
0	13324	15786.981379552624	0
0	13338	15797.173294291029	0
0	13351	15804.198634028216	0
0	13356	15810.801595517834	0
0	13367	15822.683890520632	6.400385458946
0	13388	15856.9908191555	0
0	13403	15879.017336547946	0
0	13408	15879.382465983228	0
0	13441	15913.177315266528	0
0	13476	15947.638919652539	0
0	13483	15957.901939526987	0
0	13487	15958.326175546272	0.027364475803
0	13493	15962.628679994727	0
0	13519	15975.31290631995	7.842625214339
0	13531	15980.378510284955	10.378513101287
0	13536	15984.238150247272	4.53519255236
0	13540	15988.838025968155	5.460475007549
0	13546	15989.904564520897	0
0	13583	16043.642136107123	0
0	13613	16091.235697783326	0
0	13642	16119.696471910482	0
0	13651	16128.09684886793	0.693011479178
0	13673	16160.673391161434	0
0	13718	16235.813467247667	0
0	13728	16245.293000721515	0
0	13736	16248.30260626222	0
0	13768	16301.548719120694	0
0	13794	16346.687337285867	0
0	13803	16356.873140258885	0
0	13807	16364.028533833912	7.135699775697
0	13819	16370.83882893853	0
0	13839	16383.59352891779	0
0	13868	16423.58855944895	0
0	13873	16427.95429761005	0
0	13877	16439.277366668663	1.222291964003
0	13898	16472.356557270425	0
0	13910	16477.508021635445	1.720712903124
0	13912	16478.232383928758	2.193913479152
0	13928	16489.176328134053	0
0	13945	16509.309339393333	5.227419379397
0	13958	16515.535635669583	0
0	13963	16540.225400471445	0
0	13971	16563.787338060335	0
0	13978	16569.822103460277	0
0	13991	16595.886657441758	0
0	14000	16599.427282666711	2.290475862166
0	14008	16603.135355518671	0
0	14044	16653.765558796854	0
0	14063	16695.451530811211	0
0	14076	16719.322273082254	0
0	14083	16721.139308348674	0
0	14098	16726.537535505963	0
0	14102	16727.873487780353	0.145791892403
0	14118	16736.441880712949	6.580713626051
0	14141	16756.79555955964	0
0	14148	16762.672026974189	0
0	14186	16798.369002303007	19.940325099491
0	14201	16811.839437924334	32.904787894306
0	14203	16811.986288657165	21.366426604134
0	14205	16812.118178501714	16.079686802702
0	14207	16814.145688306383	14.216655132774
0	14213	16822.348435339331	0
0	14218	16840.821408145361	0
0	14232	16849.478538666449	6.145005698173
0	14247	16856.533914517738	3.827504395572
0	14259	16861.271502231694	0
0	14264	16869.900967715897	0
0	14313	16953.982836620449	0
0	14328	16966.236398373865	0
0	14335	16981.174198681665	10.423357083852
0	14368	17014.899330432299	0
0	14378	17045.533927705567	0
0	14388	17065.569479972435	0
0	14393	17073.15313961558	0
0	14423	17098.06448837234	0
0	14441	17120.968321611792	0
0	14453	17144.021300745687	0
0	14468	17177.038622215297	0
0	14483	17203.746969659642	0
0	14501	17222.520296300752	0
0	14506	17223.211529176576	0
0	14518	17246.573809808979	0
0	14531	17262.809465670439	0
0	14546	17286.1046743388	0
0	14553	17292.210092018974	0
0	14558	17298.716050984498	0
0	14568	17313.102445860954	0
0	14578	17327.264452362766	0
0	14593	17339.23959611023	0
0	14611	17356.609442733751	0
0	14628	17396.790549849981	0
0	14635	17397.684603636147	0.666685674568
0	14642	17404.072658671429	0.040043404656
0	14659	17417.700576032417	0
0	14668	17423.252434390153	0
0	14683	17442.4958157465	0
0	14691	17447.45045249174	0
0	14702	17452.921381070347	4.832756152548
0	14716	17479.010401193334	0
0	14733	17510.627461585338	0
0	14738	17515.195225250287	0
0	14763	17545.73870793451	0
0	14768	17546.575205540339	0
0	14772	17550.970567717727	1.605015333243
0	14788	17609.930349416327	0
0	14796	17621.353769214972	0
0	14831	17664.450003553186	0
0	14853	17682.03131655489	0
0	14863	17687.71211796104	3.164116254097
0	14886	17702.617230132717	11.598132112045
0	14888	17703.318104794098	9.819590351752
0	14890	17703.712049020599	2.831676889103
0	14918	17775.985989610216	0
0	14971	17844.872249036941	0
0	15008	17882.072897549004	0
0	15012	17888.618470960346	3.804566808918
0	15023	17896.101628702824	0
0	15035	17914.53369365584	7.905349032168
0	15076	17950.060258570182	0
0	15084	17956.120994689915	0
0	15108	17977.677908106812	0
0	15116	17986.437113696413	0
0	15125	17999.833878027341	7.706253072316
0	15156	18030.409181531561	0
0	15163	18039.552303281511	0
0	15178	18051.770590574779	0.342329325943
0	15191	18059.727722542449	0
0	15210	18068.01604541447	6.715225614203
0	15212	18068.711134937217	1.611702624222
0	15226	18092.920974332744	0
0	15258	18151.502727070235	0
0	15268	18166.634767448323	0
0	15303	18197.098822211006	0
0	15326	18210.552955631863	6.018980131168
0	15366	18248.344558292288	0
0	15370	18250.620914451959	1.686885803815
0	15379	18259.858613500454	0
0	15394	18278.387811107544	0
0	15398	18280.420594910943	1.249149846392
0	15411	18289.111073776224	0
0	15429	18312.106126122384	0
0	15446	18328.514051362018	0
0	15463	18353.701682767976	0
0	15470	18357.330470718473	1.759364418141
0	15477	18363.880437758376	4.055411501955
0	15486	18392.670122611199	0
0	15498	18406.478182356654	0
0	15524	18422.077737075392	0
0	15538	18446.0216621655	0
0	15563	18537.231176247239	0
0	15568	18546.192025972533	0
0	15581	18571.404673725068	0
0	15593	18589.190302094078	0
0	15631	18619.11681207404	0
0	15648	18651.485156209972	0
0	15653	18653.955386685557	0
0	15679	18667.945990048277	0
0	15688	18675.588564826926	0
0	15701	18698.72278727838	0
0	15710	18705.556930813165	3.388427053286
0	15723	18719.243275624687	0
0	15735	18731.527905186423	7.090113852801
0	15743	18734.539361580285	0
0	15751	18741.474510619057	0
0	15771	18773.649836286722	0
0	15779	18778.574605239242	0
0	15810	18805.785324053419	25.429219200492
0	15815	18809.055487988165	0.068811524896
0	15831	18844.481215443996	0
0	15837	18847.193811450721	1.699429091074
0	15861	18876.352762136719	0
0	15874	18884.104036999745	0
0	15884	18902.029440990853	0
0	15924	18934.29996294104	0
0	15943	18955.33973084997	0
0	15988	19005.612785027397	0
0	15998	19016.974008012809	6.070985670544
0	16013	19033.855408888266	0
0	16023	19048.236902856584	0
0	16038	19064.207072755391	0
0	16043	19078.525726374346	0
0	16067	19101.571093079036	9.133341107781
0	16091	19135.963830604446	0
0	16113	19157.86634514533	0
0	16138	19230.281178347161	0
0	16153	19259.29846720555	0
0	16158	19261.303843294899	0
0	16163	19262.419186785857	0
0	16186	19308.13864543194	0
0	16191	19312.895130116322	0
0	16200	19321.916700104254	3.180091024489
0	16211	19324.60844091017	1.787806351863
0	16213	19324.957516211528	0.45263365845
0	16243	19355.280018975987	0
0	16257	19362.983332570706	0
0	16274	19373.608581966323	0
0	16287	19389.057217760893	3.369244152342
0	16292	19393.593195750768	2.978430446527
0	16311	19418.818022946856	12.058495045336
0	16313	19420.532637870642	9.637784670929
0	16315	19423.002001306055	6.088987286564
0	16333	19457.533570079483	0
0	16353	19478.604092115902	0
0	16361	19481.208422478434	0
0	16381	19512.036848721525	0
0	16387	19514.849185401622	1.378322490976
0	16393	19517.805044989691	0
0	16411	19528.693798444451	0
0	16423	19558.204729515381	0
0	16428	19565.292100619629	0
0	16433	19574.039399328842	0
0	16443	19590.062319946072	0
0	16483	19649.597627436373	0
0	16493	19668.325388542046	0
0	16502	19682.547072823419	3.833279679774
0	16508	19685.89001202114	0
0	16546	19720.076561690319	33.125321600119
0	16553	19722.79676809942	33.488991932549
0	16555	19723.940998574423	26.294593455723
0	16564	19732.236161545178	24.665129885159
0	16584	19747.091095646385	0
0	16606	19762.46271603297	13.232001863227
0	16612	19764.904863076615	10.831141883592
0	16638	19780.411200131113	0
0	16653	19792.524953194725	0
0	16663	19849.954795186112	0
0	16680	19863.522294074594	12.123313119389
0	16693	19886.449828628766	0
0	16698	19904.788709251094	0
0	16721	19943.077523519827	0
0	16725	19946.347442080739	1.368159234048
0	16743	19978.107459109363	0
0	16769	20001.500958362938	0
0	16776	20003.564737346337	0
0	16786	20012.471511954851	0
0	16813	20066.395892395221	0
0	16823	20086.348443966628	0
0	16827	20092.025060232711	2.841062999795
0	16851	20129.878127889635	0
0	16870	20150.912243586473	1.382235306466
0	16892	20165.895711853771	0
0	16902	20171.552453750556	0
0	16912	20182.024811878155	0
0	16946	20208.534176519956	0
0	16951	20218.395035842693	0
0	16955	20220.393505923639	0.949959928343
0	16966	20225.035809200787	0
0	16981	20230.047625036139	0
0	17001	20279.404080008609	0
0	17013	20297.855490665761	0
0	17020	20300.613065077522	1.152320650723
0	17022	20302.580271152248	2.560468555726
0	17033	20313.201918672606	0
0	17041	20346.272673565522	0
0	17046	20353.480991431562	0
0	17054	20354.143539180447	0
0	17062	20357.451327475815	0
0	17073	20367.194742914897	0
0	17081	20380.023605459423	0
0	17101	20436.804772295349	0
0	17108	20441.141567137984	0
0	17178	20506.63249305949	0
0	17223	20573.070310491027	0
0	17238	20600.885998305189	0
0	17243	20608.381439624563	0
0	17247	20610.906979002761	0.922451782755
0	17258	20615.432534231867	0
0	17271	20646.095118800176	0
0	17275	20646.568913288477	0.431356636226
0	17281	20653.508828839843	0
0	17287	20663.194161405296	1.862344781953
0	17298	20677.930298674474	0
0	17303	20693.437938154697	0
0	17339	20727.262158947487	0
0	17349	20734.955624766573	0
0	17354	20738.023193520317	0
0	17363	20743.676318011843	0
0	17387	20758.617330771589	0.262674099403
0	17392	20759.317675853667	0.51272568467
0	17403	20781.012510425517	0
0	17411	20788.262751766086	0
0	17419	20793.018020709054	0
0	17433	20818.408799482798	0
0	17453	20851.286479426118	0
0	17471	20876.575758570929	0
0	17491	20893.806438008322	0
0	17506	20909.081952614342	0
0	17518	20920.128495154204	0
0	17538	20947.62900854777	0
0	17543	20961.688885334653	0
0	17548	20973.477533756893	0
0	17552	20976.257074381054	1.216875470198
0	17563	20988.778086360236	0
0	17576	21010.735477846543	0
0	17587	21019.954909450452	0
0	17593	21029.131553899393	6.129429923529
0	17600	21035.365850440848	6.138894818541
0	17613	21079.736682057259	0
0	17623	21087.375309833219	0
0	17627	21101.182217644414	12.387802977168
0	17638	21115.996083812353	0
0	17653	21131.956383664773	0
0	17665	21141.313673604895	8.594001295229
0	17667	21146.808116679133	11.69234500922
0	17678	21153.648232737712	0
0	17691	21164.473633274823	0
0	17696	21170.767560748946	0
0	17711	21185.463245276366	0
0	17724	21192.979887504458	0
0	17748	21223.169700216912	0
0	17763	21231.671455807915	0
0	17798	21265.682559567763	0
0	17805	21268.282773334954	0
0	17814	21274.017559777324	4.15169609759
0	17821	21280.862916334014	2.141207302801
0	17837	21292.543860196429	0
0	17879	21315.637351254453	0
0	17893	21325.956747558641	0
0	17913	21348.326810479546	0
0	17917	21359.424391497489	7.809822367177
0	17932	21370.835171318098	3.040503608781
0	17943	21382.00098423016	0
0	17947	21385.568795768873	2.229758989847
0	17953	21390.012508264474	0
0	17957	21403.021008789233	0.789518382057
0	17962	21409.135838126776	1.824476701016
0	17968	21413.615230371726	0
0	17987	21447.898996077163	0
0	18032	21490.875972063968	0
0	18039	21493.87362305653	0
0	18073	21523.741552911697	0
0	18101	21543.027727473746	0
0	18123	21566.978648717551	0
0	18136	21580.067654550248	0
0	18146	21589.330736654502	0
0	18186	21617.831813540538	0
0	18211	21651.6386938312	0
0	18218	21665.641225180651	0
0	18246	21677.924219481027	12.027526222425
0	18286	21704.4916956072	0
0	18291	21710.67488694617	0
0	18327	21756.081119413339	0
0	18338	21766.131076526267	0
0	18342	21771.190836004094	0.045118811255
0	18357	21786.220249542032	0
0	18381	21817.501193075394	0
0	18393	21825.57845391883	0
0	18400	21828.83503102042	0.94472741503
0	18420	21843.535426616693	9.606458614286
0	18427	21847.52040915231	5.205254794765
0	18438	21855.777607684136	0
0	18445	21873.601415458479	9.880197203981
0	18468	21892.674466700204	0
0	18483	21911.793476120715	0
0	18548	21984.293949709195	0
0	18553	21990.571946562018	0
0	18566	22000.717167503771	1.123633587723
0	18586	22015.352945684314	0
0	18601	22029.791902727598	0
0	18618	22039.276149559064	9.193015693762
0	18625	22041.183408878469	7.070989794004
0	18632	22045.238166244182	6.396133762736
0	18651	22069.477132129293	0
0	18671	22096.675326765105	0
0	18676	22100.150821665833	0
0	18683	22103.911773669948	1.607249006928
0	18690	22106.055380232339	1.627617800462
0	18701	22124.416972160177	0
0	18708	22129.718843776723	0
0	18728	22158.178033224199	0
0	18753	22212.112519464151	0
0	18770	22230.836332870752	16.098057222385
0	18780	22237.851039101382	17.945153801448
0	18787	22245.535345227771	14.517459439853
0	18793	22278.983146706217	0
0	18800	22288.684340991907	3.433267423811
0	18814	22301.143163019047	0
0	18823	22306.31420064544	0.643121739452
0	18833	22312.138974737744	0
0	18854	22323.316092692409	9.385607188525
0	18858	22328.006108111739	7.893224551641
0	18883	22351.230987477453	11.561636696835
0	18893	22371.429090220161	0
0	18898	22376.343137780258	0
0	18908	22389.314570290189	8.268719108079
0	18910	22390.479967274293	8.631763924216
0	18920	22403.876946756586	4.683777664497
0	18951	22438.014082869794	0
0	18972	22452.798164001619	11.81273333585
0	18986	22478.418038974732	0
0	19028	22496.066658634799	0
0	19033	22518.654340718573	0
0	19038	22524.980628600537	0
0	19051	22545.866349710501	0
0	19061	22577.632686300702	0
0	19066	22578.627319999057	0
0	19078	22585.607434559112	0
0	19083	22587.727978665811	0
0	19093	22603.183861797417	0
0	19101	22606.882900363646	0
0	19113	22623.18895515898	0
0	19158	22660.670985488877	0
0	19163	22674.797821200189	0
0	19167	22680.364189223091	2.493007696633
0	19173	22685.074459895356	0
0	19188	22703.899356493033	0
0	19195	22711.934400343449	5.161024742098
0	19200	22717.071305504168	8.550120061496
0	19205	22720.904161563842	6.473980630197
0	19207	22724.828116967272	6.917875533633
0	19217	22732.919301351542	5.444791959709
0	19231	22738.223098814846	0.217664585168
0	19248	22780.657742080388	0
0	19253	22783.663457768112	0
0	19265	22789.975477568792	4.564788885147
0	19267	22795.30462503007	5.824363811115
0	19283	22821.497222038686	0
0	19288	22840.361973771828	0
0	19303	22851.351285564724	0
0	19310	22858.013922768516	0.064561143089
0	19323	22885.177313059425	0
0	19341	22901.818456180272	0
0	19356	22916.119075866978	12.104943378869
0	19358	22916.71125921835	12.211213603413
0	19360	22918.167202588655	9.350383001046
0	19362	22920.675264927439	6.721220910892
0	19371	22923.840582057462	0
0	19386	22948.440432794061	0
0	19428	22992.050929721096	0
0	19453	23022.573241778674	0
0	19468	23035.88924038097	0
0	19485	23043.505244154637	1.846943863152
0	19508	23060.961409321273	0
0	19517	23063.972084120557	1.57203439139
0	19573	23156.997521920667	0
0	19590	23182.953987231018	2.302600846569
0	19601	23201.05483250036	0
0	19611	23206.004901280565	0
0	19643	23226.440387605206	0
0	19653	23239.422298599566	0
0	19668	23247.773225362981	0
0	19673	23255.465982075382	0
0	19706	23289.35380151453	0
0	19718	23299.99551547146	0
0	19729	23306.361155287166	0
0	19743	23318.910303350218	0
0	19769	23341.532842296891	0
0	19783	23357.877919000141	0
0	19803	23376.028936027301	0
0	19814	23392.812800990899	0
0	19835	23404.324243088104	0
0	19873	23425.011467021435	0
0	19909	23485.946863596285	0
0	19928	23499.387374280056	0
0	19937	23510.450710564024	7.826872223938
0	19960	23532.851206605309	0
0	19967	23537.569417057028	0
0	19981	23545.465416585117	0
0	19991	23555.700488902767	0
0	20006	23567.120739882355	10.77954784019
0	20016	23573.189788214621	15.698625492827
0	20018	23579.77599955854	19.207489226553
0	20023	23580.164884883579	16.805710335861
0	20042	23589.06896673432	21.443441931106
0	20052	23595.917964880843	16.078521290182
0	20054	23597.889595937066	11.014591029727
0	20076	23616.93705857383	0
0	20086	23619.744892542264	0
0	20093	23628.721923637615	0
0	20119	23670.406987519934	0
0	20133	23698.959541412918	0
0	20140	23705.928177406014	6.228846436056
0	20142	23706.347863040856	2.409132291612
0	20188	23780.664677336636	0
0	20193	23799.290579528763	0
0	20201	23824.971065283279	0
0	20244	23857.835917070484	0
0	20266	23895.506183338559	0
0	20278	23910.088003660932	0
0	20293	23934.002522839127	0
0	20311	23967.423531114447	0
0	20323	23970.836341385971	0.051824637603
0	20343	24022.867206230509	0
0	20348	24039.896373047836	0
0	20372	24064.274235241029	21.941532980265
0	20374	24072.283263572836	20.979861872528
0	20384	24080.289607174173	20.850401693174
0	20386	24082.506084475598	22.907922399095
0	20398	24089.004687449184	27.471778699936
0	20409	24093.758983698441	17.861697442298
0	20413	24096.265691382648	12.078197599494
0	20420	24102.23305777751	12.211699275442
0	20422	24108.138685754505	11.103230048001
0	20428	24117.376485216814	0
0	20433	24126.567476263445	0
0	20468	24165.185837314804	0
0	20472	24167.708240761306	1.266872452754
0	20478	24172.740305393178	0
0	20482	24175.452321343262	1.866271653763
0	20491	24183.636732251996	0
0	20507	24201.950213297918	0
0	20526	24225.292591697023	0
0	20535	24232.113978536946	5.356460766717
0	20568	24276.54173460923	0
0	20578	24283.225276254284	0
0	20585	24288.948775400893	0.792387312336
0	20598	24302.950283998019	0
0	20621	24320.774675111381	0
0	20638	24344.859278330022	0
0	20643	24378.875283850909	0
0	20650	24392.03691186025	7.403310129952
0	20673	24427.64588765837	0
0	20681	24443.608819184094	0
0	20705	24471.833633747801	0
0	20710	24478.926008979674	0
0	20734	24505.32369415497	0
0	20763	24536.778555266768	0
0	20768	24544.160224543588	0
0	20776	24560.096415490597	0
0	20781	24564.098486221827	0
0	20794	24576.920962109356	0
0	20799	24581.201352471973	0
0	20806	24582.066889278794	0
0	20828	24605.953185665654	0
0	20833	24619.580471408832	0
0	20838	24624.868928249126	0
0	20843	24626.037440527392	0
0	20873	24658.307933432728	0
0	20878	24679.675887023054	0
0	20882	24683.966459427334	0.961353723112
0	20891	24692.683722305326	0
0	20901	24700.360791529877	0
0	20921	24719.936323975436	0
0	20929	24723.827331667983	0
0	20951	24754.242595353385	0
0	20975	24768.144601382639	0
0	21013	24788.861121840106	0
0	21025	24793.783599997883	0
0	21044	24804.820730637748	0
0	21053	24818.018128241201	0
0	21057	24819.787096311712	0.284866461195
0	21073	24836.240543129841	10.025818589124
0	21078	24838.345158065351	7.278849509857
0	21080	24838.669395959266	2.009109666108
0	21108	24873.508226156973	0
0	21112	24877.039022745819	2.846776881966
0	21146	24899.533067894462	0
0	21155	24906.818149515772	4.930963955368
0	21163	24908.146239576119	0.391468956238
0	21167	24910.068398215948	2.255981097575
0	21178	24914.994072421421	0
0	21208	24931.126410708274	0
0	21213	24938.392515218685	0
0	21237	24970.947875383631	0
0	21241	24974.146787595786	2.97860561676
0	21251	24985.689692798937	0
0	21263	24993.496234366106	0
0	21281	25013.731335413145	0
0	21285	25017.404952903705	2.930183098132
0	21311	25041.27695071135	0
0	21316	25049.850893321904	0
0	21349	25118.312369660553	0
0	21357	25126.847970153943	0
0	21378	25135.30578684141	0
0	21386	25146.864148022437	0
0	21423	25239.83563995338	0
0	21473	25300.756301245355	0
0	21493	25328.276532188083	0
0	21507	25338.452419529144	3.556256290241
0	21529	25361.486069602353	0
0	21553	25386.200754341305	0
0	21566	25397.960204066671	0
0	21599	25445.83774914723	0
0	21608	25452.629789342227	0
0	21624	25476.933644006715	0
0	21637	25482.526363195455	0
0	21643	25484.740767754568	2.022661901978
0	21666	25521.599033785538	0
0	21673	25525.691337162237	1.56214309125
0	21679	25531.985215069159	0
0	21691	25540.893079604544	0
0	21697	25544.587501853279	1.643659195601
0	21703	25558.403558222479	0
0	21711	25564.508867003227	0
0	21718	25574.898194120211	0
0	21726	25579.714431406921	0
0	21738	25591.108527579937	6.575259813486
0	21751	25596.420545633556	0
0	21773	25612.539455084587	0
0	21780	25613.694156747809	1.05163963142
0	21785	25615.891929921023	2.616289276816
0	21787	25622.302413081727	7.646762143224
0	21793	25627.165313229565	0
0	21803	25667.904525485689	0
0	21818	25680.037742790207	0
0	21823	25682.661758816633	0
0	21831	25689.423037235613	0
0	21840	25698.861057251441	5.600173544799
0	21842	25702.974715332241	8.80021932598
0	21856	25720.610227245553	0
0	21892	25742.884674493953	0
0	21913	25762.349849402171	0
0	21933	25820.990950274217	0
0	21938	25824.809701943046	0
0	21964	25851.911928505185	0
0	21974	25857.244079458102	0
0	22001	25883.289633130367	0
0	22008	25906.510485294442	0
0	22018	25912.516765755812	5.994079538021
0	22036	25944.662610178223	0
0	22051	25975.894234384421	0
0	22079	25998.022649856752	13.858495286164
0	22081	25999.340525569784	14.675926766933
0	22089	26007.838411193499	18.433593278156
0	22109	26020.626277423398	0
0	22121	26029.70452303914	5.691594220865
0	22163	26055.8418578049	0
0	22168	26059.788336253712	0
0	22206	26093.160202364079	0
0	22213	26096.666811697042	2.201905030814
0	22227	26103.987736234795	2.354110669704
0	22242	26117.345388112149	15.089513263075
0	22244	26117.75326232028	4.027240069592
0	22253	26124.945437683608	10.24614917613
0	22268	26143.223655740041	0
0	22281	26157.976468572357	0
0	22296	26175.18612965139	0
0	22303	26177.432593126477	0.4058037089
0	22305	26179.659229341012	2.473296301158
0	22343	26220.091685050082	0
0	22402	26267.956611975499	0
0	22406	26270.341618974453	1.0000970889
0	22412	26271.123421497991	0
0	22416	26272.334924599756	0.780362684408
0	22449	26320.361120366871	0
0	22454	26322.648353056723	0
0	22472	26333.646155729223	0
0	22488	26358.485310087532	0
0	22498	26366.369425630453	1.330279856553
0	22531	26410.041616518743	0
0	22538	26446.20203787521	0
0	22564	26468.298812096119	15.058090427722
0	22570	26472.790345398653	14.335183944209
0	22593	26503.183088837481	0
0	22603	26559.817244790398	0
0	22608	26570.107409900316	0
0	22626	26626.499014103268	0
0	22635	26631.460067257011	1.684548390105
0	22656	26646.270200406993	0
0	22662	26652.997557743646	5.357602011027
0	22691	26723.235025856968	0
0	22701	26730.858390818073	0
0	22717	26746.444925846482	15.281375823034
0	22738	26786.133850348548	0
0	22743	26797.665817152914	0
0	22751	26803.951566075819	0
0	22773	26839.735201820165	0
0	22778	26853.012516558196	0
0	22799	26882.491666542325	0
0	22819	26902.574368235092	0
0	22828	26910.994059837174	0
0	22855	26943.84968810756	0
0	22871	26960.673239390845	0
0	22888	26981.081965297497	0
0	22904	26990.139990445778	0
0	22930	27004.934674651663	0
0	22959	27016.030354268719	0
0	22966	27018.981069602986	0
0	22978	27038.597813530971	0
0	22983	27042.20211636989	0
0	22988	27048.967598874159	0
0	23001	27072.822406920115	0
0	23005	27078.183986918801	0.731851181134
0	23034	27110.68166617605	0
0	23065	27133.667224243537	0
0	23085	27148.137408625963	0
0	23133	27225.329944911669	0
0	23143	27233.321622568163	0
0	23168	27253.174208179178	0
0	23177	27261.712752069916	5.089233982826
0	23231	27311.555061468507	0
0	23237	27318.400744197297	0.195538419512
0	23258	27345.022068917325	0
0	23288	27414.748232931702	0
0	23293	27423.45125449262	0
0	23314	27428.621337265229	0
0	23323	27446.774643413198	0
0	23328	27459.040989095933	0
0	23346	27472.682098577586	0
0	23369	27492.887723901484	0
0	23391	27512.781121302402	0
0	23396	27513.836135807864	0
0	23407	27517.108810752778	2.184504928808
0	23418	27536.132659752789	0
0	23428	27549.142538741627	0
0	23433	27561.665357117498	0
0	23456	27574.433963343649	8.142523751822
0	23458	27574.541340466859	4.381802406889
0	23468	27578.984022478802	1.616734537934
0	23498	27594.256091776316	0
0	23503	27598.217951961157	0
0	23508	27619.680389776839	0
0	23516	27627.329281478383	0
0	23523	27634.711279620737	0
0	23528	27636.895925697977	0
0	23571	27683.267846122485	0
0	23588	27700.785801694342	0
0	23593	27705.512593582041	0
0	23601	27711.06981517244	0
0	23614	27725.644433871236	0
0	23622	27733.160030647761	2.873287718189
0	23638	27750.038792240751	14.378165662827
0	23648	27765.622144949548	0
0	23658	27776.656631357002	10.00569504342
0	23665	27781.448933424212	6.040983563112
0	23678	27816.247467296387	0
0	23688	27827.979414627839	0
0	23704	27836.778006972139	0
0	23710	27839.135651397985	1.076768437419
0	23719	27843.653743806089	0
0	23734	27852.25505670066	0
0	23745	27864.706958144301	10.666043318746
0	23766	27880.945827149089	0
0	23783	27890.173386326399	3.632226766905
0	23798	27914.686345460363	0
0	23811	27920.949758241422	0
0	23828	27930.679178669737	0
0	23853	27948.354125924043	0
0	23876	27996.450874790552	0
0	23880	27997.33615343733	0.796435850669
0	23901	28017.93454086039	0
0	23938	28067.578391390081	0
0	23943	28076.804925867939	0
0	23948	28093.525048991288	0
0	23953	28100.439844229492	0
0	23963	28113.089395421821	0
0	23978	28126.222744617463	0
0	23994	28145.752965467662	0
0	24002	28150.473637905112	0
0	24008	28152.456481165078	1.720505421791
0	24027	28160.673463582542	5.534995617345
0	24038	28171.5092034238	0
0	24078	28233.980854455574	0
0	24103	28272.871465878902	0
0	24119	28281.408815053075	0
0	24124	28283.524283412964	0
0	24137	28296.331924705416	3.057520452521
0	24152	28305.884835052377	0.951469958284
0	24158	28314.998912654177	0
0	24165	28318.670650909386	3.664487588157
0	24174	28320.354175208412	0
0	24191	28329.668318843755	0
0	24203	28342.830356999073	0
0	24215	28352.502034591454	2.81311246729
0	24223	28358.001158729609	0
0	24236	28380.542059722753	0
0	24243	28386.011677337292	0.345916956897
0	24255	28389.270943618688	3.180228984024
0	24257	28394.097274076774	6.300122400976
0	24278	28425.296330865431	0
0	24296	28443.50309837697	0
0	24306	28477.872911692253	0
0	24321	28490.502331101483	0
0	24327	28491.795595408608	0.312972030805
0	24338	28502.379658109686	5.562382230708
0	24353	28518.591653593302	20.11013674605
0	24355	28519.031538952042	18.103559521289
0	24360	28524.16742072481	8.239315065001
0	24368	28537.093084589388	0
0	24378	28548.974148373334	0
0	24393	28569.236532076215	0
0	24403	28578.14493733406	6.639127084669
0	24418	28592.941353370152	12.321048953165
0	24423	28597.664848858968	13.907282051916
0	24454	28647.171642678082	0
0	24461	28654.191825067108	0
0	24473	28662.285744760902	0
0	24482	28668.986512750979	2.590949363709
0	24491	28684.302059776495	0
0	24506	28695.983869849532	0
0	24513	28698.721594847028	1.381183973128
0	24550	28723.40364521918	4.966341486666
0	24573	28742.420469318726	0
0	24581	28766.07797868747	0
0	24599	28782.243895653052	0
0	24608	28792.453953007509	0
0	24618	28804.255439798772	0
0	24628	28817.516829027346	0
0	24648	28844.713726865123	0
0	24663	28861.576002423013	0
0	24668	28877.029377643575	0
0	24734	28935.368219587101	0
0	24748	28945.607002961543	0
0	24763	28990.378269971619	0
0	24767	28993.300366956967	1.014627664589
0	24776	29005.505881771542	0
0	24788	29037.471059068247	0
0	24796	29046.217263688183	0
0	24824	29073.698420732681	0
0	24841	29092.25833770721	0
0	24876	29146.047066803557	0
0	24880	29147.069566963347	0.115286171389
0	24888	29181.232472275226	0
0	24897	29196.054093577381	7.717144540135
0	24908	29214.373085864152	0
0	24922	29228.374730124094	0
0	24930	29231.7371641392	0
0	24945	29239.256615001562	6.862293567167
0	24978	29262.549982490609	27.348677116292
0	25004	29287.640606724616	0
0	25010	29296.479918067207	7.104728118075
0	25018	29308.628858226702	0
0	25022	29324.983766552012	14.654665119475
0	25027	29332.715320428536	4.590118376881
0	25056	29364.060546256067	0
0	25061	29366.616985368271	0
0	25081	29378.79342210778	0
0	25093	29382.549098867271	0
0	25097	29387.641577804714	3.402856497712
0	25106	29397.750731456312	0
0	25111	29402.675682180309	0
0	25135	29414.645278689208	11.240885237721
0	25142	29425.217650153353	12.917255216999
0	25148	29427.466575935294	0
0	25179	29465.633213737918	0
0	25186	29475.146535034589	0.47078884147
0	25188	29481.32468742172	6.320909321247
0	25223	29510.224286653331	0
0	25245	29533.995259762839	18.876968280245
0	25247	29540.798721852837	20.695890780167
0	25266	29554.611036824972	0
0	25278	29561.492830093636	0
0	25285	29572.200000125613	4.827549634913
0	25316	29598.756974093788	0
0	25322	29608.12758286499	7.659576833733
0	25346	29636.910461876172	0
0	25356	29643.352144557496	0
0	25378	29671.779137440726	0
0	25388	29679.418473089524	0
0	25392	29687.538294482497	1.63899964875
0	25411	29716.650948858238	0
0	25433	29783.786725962347	0
0	25440	29789.364910888825	1.247042658062
0	25442	29792.074910307085	3.103491753938
0	25455	29804.603500259039	5.445807727022
0	25463	29808.419816032648	2.944898246588
0	25468	29810.397754025788	2.59874109713
0	25481	29817.063207863848	0
0	25503	29859.388432668367	0
0	25508	29869.924684565478	0
0	25534	29889.286139501152	0
0	25552	29902.901652760252	0
0	25562	29910.047915304173	0
0	25573	29926.718141125707	12.375484567276
0	25588	29944.346507068546	0
0	25626	30026.502987904282	0
0	25653	30061.070966035305	0
0	25666	30078.602971064787	0
0	25678	30102.693728702706	0
0	25682	30108.007567747757	4.165794784913
0	25693	30118.667898127407	0
0	25697	30120.20773490998	1.238517733918
0	25733	30142.516633417042	0
0	25760	30167.576483591646	0
0	25771	30178.57099493782	0
0	25793	30216.951707058694	0
0	25829	30254.554894472567	0
0	25856	30292.766723894204	0
0	25868	30302.800351169382	0
0	25888	30343.182836514396	0
0	25898	30351.47005874394	7.653228719836
0	25928	30378.857092569847	0
0	25933	30379.939011806003	0
0	25944	30388.995669515965	0
0	25955	30397.410700448388	0
0	25980	30414.626354586638	0
0	26041	30480.592563035925	0
0	26083	30536.470770021265	0
0	26088	30547.578765691556	0
0	26095	30556.146811175174	8.117296551759
0	26097	30565.270778673981	13.044755945275
0	26115	30569.86748664302	0.642894143664
0	26133	30593.823664745018	0
0	26137	30600.754334979701	4.498299903038
0	26143	30626.718070817138	0
0	26171	30671.503282351712	0
0	26181	30674.267109018366	0
0	26229	30727.296619426126	0
0	26235	30729.994417801263	2.641719315043
0	26248	30762.147978783011	0
0	26268	30786.697343212478	0
0	26276	30793.944459799323	0
0	26299	30811.63161171485	0
0	26307	30818.568510766494	0
0	26368	30900.900721756376	0
0	26378	30920.276308441456	0
0	26382	30932.733275050085	6.73252600471
0	26388	30944.617384003237	0
0	26406	30974.250613152236	0
0	26413	30977.290935588056	0
0	26417	30979.274818931855	0.866126337445
0	26446	31018.9205107874	0
0	26465	31042.330822242825	5.120369565534
0	26473	31045.79535736556	3.073602692401
0	26482	31055.013289748786	4.818482186045
0	26498	31073.438606350813	18.24723268477
0	26521	31103.003393095168	33.640565626324
0	26523	31103.754062513527	32.004139689963
0	26528	31106.289251895197	28.089708341424
0	26538	31109.34999012919	9.338847397895
0	26540	31111.573714418881	6.696797601358
0	26571	31134.102129728494	0
0	26591	31147.23176997936	0
0	26597	31151.524537125238	0.237306368186
0	26606	31172.97261321964	0
0	26666	31225.972317933028	0
0	26674	31228.181049434378	0
0	26688	31239.443813021958	0
0	26708	31270.697242600262	0
0	26713	31275.412607653339	0
0	26728	31308.629531644202	0
0	26732	31312.771073185811	0.229499490432
0	26737	31320.554794113105	5.399722953494
0	26751	31325.294779316473	0
0	26768	31332.867881322178	0
0	26772	31334.078919700223	0.503534541541
0	26786	31374.802629414507	0
0	26793	31385.803050298784	0
0	26835	31446.426497892603	0
0	26845	31450.143453104139	0
0	26865	31468.8444956876	0
0	26884	31486.467586010132	0
0	26923	31530.857047392458	0
0	26928	31536.752845401242	0
0	26933	31538.728214133692	0
0	26946	31550.215038998512	0
0	26956	31562.11369179416	0
0	26983	31625.718270009217	0
0	26987	31633.786788186604	1.949708686298
0	26993	31651.814754441316	0
0	27001	31664.867541446875	0
0	27006	31670.721540867792	0
0	27012	31674.377930438618	0.580255044423
0	27028	31689.68366738196	0
0	27051	31705.399349532856	0
0	27066	31728.114951341315	0
0	27073	31740.592227865012	0
0	27078	31741.176882695108	0
0	27083	31748.402683826011	0
0	27113	31773.558488308346	0
0	27122	31779.558273865891	5.649903296541
0	27128	31788.426785833512	0
0	27138	31810.707371339974	0
0	27154	31821.704996537324	0
0	27161	31824.496653286418	0
0	27196	31875.905703295088	0
0	27221	31921.275773052096	0
0	27234	31926.795875855384	0
0	27253	31956.002765726586	0
0	27268	31973.899240415952	0
0	27279	31979.05261483465	0
0	27324	32018.586272427173	0
0	27393	32087.915005408295	0
0	27398	32102.463031749827	0
0	27403	32108.885329670865	0
0	27423	32133.257294506294	0
0	27432	32149.428057102352	9.354281852703
0	27438	32155.094037455035	0
0	27443	32169.631261577027	0
0	27471	32198.42009174418	0
0	27488	32210.896585461188	11.231643645834
0	27490	32213.134629173086	4.231683986329
0	27503	32231.501404591472	0
0	27521	32247.21420856663	0
0	27537	32252.775113313625	0.734190815257
0	27548	32281.854993132716	0
0	27553	32282.776004939828	0
0	27581	32314.964575731082	0
0	27599	32332.467819140723	9.52966200478
0	27601	32332.864578824868	0.924799896588
0	27651	32396.336769189066	0
0	27655	32397.672130995321	0.499187709847
0	27665	32405.321295662098	5.035561423114
0	27667	32411.889188358662	8.859180809536
0	27678	32425.221611822312	0
0	27689	32450.071504022314	0
0	27697	32456.88012613841	3.363375721913
0	27707	32459.339680952529	1.505512339698
0	27718	32471.670368506292	0
0	27727	32477.214078364447	5.092369608505
0	27753	32511.312270269613	0
0	27776	32535.31880055871	0
0	27788	32540.454564107544	2.077151816402
0	27801	32558.229724753326	0
0	27828	32618.225019730862	0
0	27848	32636.239301846511	0
0	27858	32658.150916583563	0
0	27862	32672.014301733468	4.047025528555
0	27876	32682.39439429187	0
0	27883	32694.376624325598	0
0	27888	32699.374054855577	0
0	27893	32700.657425082218	0
0	27909	32716.440916227659	0
0	27917	32722.841236650762	0
0	27932	32732.109332988508	0
0	27946	32758.39609656962	0
0	27955	32762.026576139647	0.691900762991
0	27966	32776.750519778968	0
0	27973	32780.382271854273	0
0	27985	32790.565832461957	4.311642307091
0	27997	32807.032548686227	9.077572912317
0	28008	32819.386478088827	0
0	28026	32842.052456274226	0
0	28030	32845.07120930309	1.205057431179
0	28048	32861.790238334773	9.200744744542
0	28055	32870.552893349471	7.075570827787
0	28064	32875.048955009807	0
0	28094	32902.014465873504	0
0	28103	32925.546979558442	0
0	28107	32928.783769742744	0.155271627861
0	28113	32938.096610778333	0
0	28123	32945.990347274232	0
0	28171	33026.162728854276	0
0	28178	33042.438581940573	0
0	28226	33076.517228013833	0
0	28241	33104.97841984922	0
0	28250	33122.867663261322	1.241717774258
0	28284	33155.740518442606	0
0	28298	33162.523443077759	0
0	28302	33167.817653372543	4.553869929773
0	28313	33180.589028633078	0
0	28317	33181.673953485235	1.008588142648
0	28331	33195.088043629745	0
0	28335	33195.81145755394	0.703748891916
0	28378	33231.974710356126	0
0	28389	33238.593561170531	0
0	28401	33246.969843078154	0
0	28423	33276.820550370898	0
0	28441	33297.487837910232	0
0	28451	33315.335162857145	0
0	28459	33319.16883816272	0
0	28508	33372.672018843711	0
0	28523	33383.662308067714	0
0	28548	33442.018552436205	0
0	28571	33467.391364820407	0
0	28581	33495.335667320874	0
0	28599	33525.633850880678	0
0	28608	33535.258949455639	0
0	28613	33543.916405155387	0
0	28620	33549.998364167291	3.765432371927
0	28632	33559.952718682606	8.206923120134
0	28651	33578.251106810343	0
0	28664	33588.526493856903	0
0	28674	33592.866304774769	2.660275853195
0	28686	33596.389673954885	4.888314800868
0	28688	33598.978494087345	6.458799844139
0	28690	33599.310085983636	6.14117231137
0	28698	33606.339432089641	0
0	28707	33610.325437880509	2.28184063929
0	28712	33610.987545554359	0.135648775858
0	28734	33649.596286338754	0
0	28758	33669.953812341931	0
0	28808	33729.597591090126	0
0	28843	33770.566299685302	0
0	28848	33788.173328965878	0
0	28853	33799.671226891141	0
0	28893	33850.574865240736	0
0	28917	33871.231082681732	0
0	28925	33877.101235214548	0
0	28954	33906.855017879535	0
0	28968	33932.142277458615	0
0	28973	33933.721739312849	0
0	28978	33945.554088024317	0
0	29008	33993.431991163384	0
0	29017	34004.563964293898	6.21964689748
0	29028	34009.487425429797	0
0	29038	34025.276913718928	0
0	29093	34104.890553145865	0
0	29101	34114.178734158201	0
0	29123	34154.656090453304	0
0	29135	34164.280068687513	3.507461790954
0	29143	34173.744152976846	0
0	29147	34180.631252975139	6.880015275318
0	29153	34192.882977816542	0
0	29193	34259.169647266679	0
0	29249	34371.155140870317	0
0	29283	34412.196595485231	0
0	29303	34442.553499305139	0
0	29313	34472.097135044156	0
0	29361	34534.690103004452	0
0	29371	34544.329409969314	0
0	29377	34552.305957472579	7.568049169533
0	29390	34564.135630785063	3.507803374951
0	29392	34564.165612709108	2.133951942568
0	29401	34574.614984274214	0
0	29423	34589.620315700265	0
0	29433	34598.630160082237	0
0	29441	34605.073942842133	0
0	29447	34608.857375252113	2.406651692386
0	29453	34610.597701657107	0
0	29465	34622.274560527938	4.563371060687
0	29471	34628.386695406438	0
0	29476	34636.048296604618	0
0	29481	34637.995674020287	0
0	29485	34641.68018299658	1.930764642798
0	29499	34656.764853530184	0
0	29505	34661.568656668974	3.810752263856
0	29521	34677.400256735017	0
0	29528	34681.579865119826	0
0	29532	34682.461165017053	0.539655409788
0	29553	34711.407877317324	0
0	29577	34735.329609629846	0
0	29584	34745.765137849136	0
0	29609	34768.557881617132	12.168996710516
0	29613	34769.745384225798	2.634704509884
0	29621	34774.233369266415	0
0	29633	34792.641240819141	0
0	29643	34804.820333413583	0
0	29648	34811.487432677794	0
0	29676	34849.865376629463	0
0	29691	34865.318579368098	0
0	29698	34879.266500093767	0
0	29713	34914.990568787439	0
0	29741	34954.732870257982	0
0	29748	34960.152258577518	0
0	29756	34972.682254954104	0
0	29768	34995.643755034685	0
0	29781	35015.599323303165	0
0	29790	35025.620312369904	9.941871487257
0	29805	35032.674255092291	7.572999734418
0	29807	35035.711540434777	3.751195398009
0	29827	35047.432766144125	0
0	29838	35071.16386632225	0
0	29846	35080.504172795066	0
0	29858	35084.309331196717	0
0	29866	35149.937766782548	0
0	29879	35161.985500632374	0
0	29906	35186.087742145258	0
0	29918	35222.684044474909	0
0	29944	35284.051752851428	0
0	29949	35287.33043595578	0
0	29971	35296.684082783601	7.881969529079
0	29977	35303.26163592845	10.812600780754
0	29988	35322.557071035032	0
0	30002	35329.634362126295	0
0	30011	35336.417079698333	0
0	30018	35340.838633321853	0
0	30036	35346.1685539609	0
0	30051	35359.782978900274	0
0	30081	35407.826338153049	0
0	30088	35422.937866764365	0
0	30139	35500.569291724498	0
0	30153	35517.027214045324	0
0	30193	35570.284753891796	0
0	30198	35575.374372538497	0
0	30208	35604.0870781887	0
0	30213	35611.006077368775	0
0	30221	35625.213364893764	0
0	30233	35653.495752473842	0
0	30255	35679.413050141176	0
0	30288	35695.776252415145	0
0	30293	35702.757918170512	0
0	30297	35713.892788220901	11.088633538776
0	30326	35762.675093968524	0
0	30347	35782.473876135137	0
0	30361	35790.004014128195	4.316729902183
0	30363	35790.397343416586	1.365481156823
0	30365	35792.398130104388	2.719347239627
0	30373	35802.131832318019	0
0	30382	35809.785399484391	2.823949916895
0	30398	35835.596224711451	0
0	30434	35861.692224410254	0
0	30447	35865.945252550072	0
0	30463	35881.067257006586	0
0	30474	35894.12253707372	0
0	30478	35895.719223720093	1.047677337552
0	30493	35912.567640476549	0
0	30501	35939.25393624796	0
0	30519	35949.121039481817	0
0	30527	35957.919912423084	4.392995020148
0	30541	35981.469383717649	0
0	30548	35997.585223603917	0
0	30553	36007.513430780075	0
0	30572	36034.866555593533	0
0	30578	36038.917037208986	1.14569160296
0	30588	36055.636823259955	0
0	30600	36071.886870362514	0.705349926413
0	30608	36087.212532543385	0
0	30639	36123.330857952882	0
0	30658	36161.478465508993	0
0	30671	36180.43505126845	0
0	30683	36195.830494861051	0
0	30688	36204.18005324861	0
0	30705	36220.42385679086	14.921697832242
0	30721	36226.852340098898	5.638091589655
0	30728	36229.771635359391	6.090465945858
0	30743	36252.371822185063	0
0	30750	36260.539494126541	4.290335794127
0	30761	36268.558670389364	0
0	30772	36275.3875539082	1.563677918222
0	30783	36302.69901054028	0
0	30788	36312.174754962699	0
0	30803	36336.741478266448	0
0	30817	36348.089405844839	8.079111368241
0	30831	36367.380965081345	0
0	30835	36369.252223729434	0.888223909726
0	30853	36384.248749364846	0
0	30857	36391.162904971723	5.726032510984
0	30922	36517.898263585622	0
0	30956	36543.621309714102	0
0	30962	36549.633409652768	5.224981551509
0	30978	36568.981628646421	0
0	30983	36589.392129260037	0
0	30993	36611.255449207681	0
0	31001	36621.53306992698	0
0	31036	36669.028791248433	0
0	31043	36691.397044936633	0
0	31048	36692.943369493838	0
0	31073	36712.614594989671	0
0	31080	36729.455426000879	12.109450106234
0	31088	36736.115425290731	0
0	31112	36772.201389394409	0
0	31116	36775.095490485124	1.777818252054
0	31135	36794.533786258645	0
0	31142	36806.402139465557	0
0	31153	36820.703635247842	0.034292113511
0	31174	36837.58835564182	0
0	31193	36854.180629602526	0
0	31209	36867.185671753178	0
0	31219	36871.811920797593	0.18543989647
0	31228	36876.889229317155	0.155081629982
0	31234	36879.045398255935	0
0	31271	36929.840915297416	0
0	31284	36938.648988071176	0
0	31298	36951.943655382346	0
0	31303	36963.191796717487	0
0	31359	37014.169986093506	0
0	31373	37025.796736742227	0
0	31388	37030.631495798163	3.656280708185
0	31467	37110.680921401992	0
0	31528	37208.343083423053	0
0	31538	37219.94841230998	0
0	31542	37225.152841796581	0.742827235123
0	31551	37227.414708908236	0
0	31563	37230.273210976523	0
0	31567	37232.731743130045	0.039015589209
0	31576	37245.474250374926	0
0	31589	37249.102371044754	0
0	31593	37250.524995830455	0.157435696456
0	31605	37265.297542849439	8.45902218383
0	31607	37269.475064938456	10.540992771075
0	31624	37283.109793377973	0
0	31633	37288.836945341303	0
0	31673	37348.92983521991	0
0	31686	37354.02772867907	0
0	31696	37360.463504824218	0
0	31712	37374.814001880275	7.444128432035
0	31731	37404.938976674482	0
0	31753	37424.947777920491	0
0	31781	37472.424746778297	0
0	31794	37490.45447865945	0
0	31813	37512.368756681751	0
0	31818	37516.402822587437	0
0	31836	37540.240083342829	0
0	31848	37544.454121552234	1.780632794726
0	31868	37573.131722636662	0
0	31893	37591.479212556713	0
0	31904	37603.239267708409	0
0	31921	37613.922822391812	0
0	31933	37635.818080184578	0
0	31943	37655.085977061054	0
0	31953	37678.023395145697	0
0	31961	37695.916726912201	0
0	32006	37732.320859699181	0
0	32013	37739.48278813012	0
0	32018	37748.228038943904	0
0	32041	37768.853320118149	0
0	32053	37776.8102473922	0
0	32071	37806.811963939158	16.732002683711
0	32073	37808.319436074768	6.412052144849
0	32101	37824.298387319758	9.355963647299
0	32103	37824.771349230811	8.986923451463
0	32114	37836.374788888347	0
0	32123	37839.686984610825	0
0	32133	37844.59193426046	0
0	32143	37853.468682765386	0
0	32156	37861.433005001713	0
0	32172	37870.367422125761	0
0	32201	37892.566219712815	0
0	32224	37925.331991578807	0
0	32247	37946.606350255888	0
0	32254	37960.241386550243	10.745576269607
0	32261	37963.378629689437	1.375421343027
0	32271	37968.371749445136	0.482990046701
0	32278	37972.86693804855	0.250238242088
0	32308	37993.919531812147	0
0	32323	38017.293959426429	0
0	32336	38027.576065969527	10.23380609734
0	32373	38067.478777174852	0
0	32398	38090.701105968206	0
0	32403	38093.86506457744	0
0	32436	38128.786465262793	0
0	32441	38132.088090034428	0
0	32468	38156.417781757868	0
0	32473	38159.962431903663	0
0	32501	38186.756444621221	0
0	32529	38224.943311170729	0
0	32536	38229.82879866024	2.687602731411
0	32540	38231.902775870476	2.908564106111
0	32552	38239.648347586736	0
0	32588	38265.578885666638	0
0	32603	38281.522456494693	0
0	32623	38310.710808385971	0
0	32631	38317.172385941047	0
0	32641	38323.593537331571	0
0	32681	38427.013354833025	0
0	32696	38442.701755470299	14.006067490138
0	32698	38444.084452486462	6.654332860132
0	32702	38445.568292014829	6.647993781373
0	32718	38472.059140667537	0
0	32726	38475.7148363318	0
0	32732	38478.868111826267	0.631507107208
0	32737	38485.886468815541	6.434452714353
0	32743	38490.503042241304	0
0	32768	38530.214902113205	0
0	32798	38571.851047568386	0
0	32802	38574.238207001906	0.315784539111
0	32816	38590.337843730902	0
0	32831	38612.844358886474	0
0	32853	38637.009669777535	0
0	32861	38644.591928418749	0
0	32873	38664.331887026008	0
0	32913	38701.994204530355	0
0	32925	38713.016058585962	2.501644479753
0	32933	38717.806175574974	0
0	32943	38746.868906200879	0
0	32958	38761.745115095605	0
0	32963	38778.708855610085	0
0	32968	38786.311752974983	0
0	33001	38878.650327185484	0
0	33007	38888.994737665657	4.271717832388
0	33020	38894.944769350282	3.007078462087
0	33028	38903.039731828471	11.060573259257
0	33035	38913.516945270453	11.687926898019
0	33037	38914.523224995321	4.337080277703
0	33043	38917.20915292757	0
0	33111	39010.644679055437	0
0	33136	39024.968973794391	0
0	33166	39067.314183221868	0
0	33172	39076.616522514394	4.298210308133
0	33177	39077.74820068318	0.825596760827
0	33194	39087.191492932694	0
0	33233	39124.110355730531	0
0	33242	39128.075393360567	0.7357855316
0	33248	39140.07753287773	0
0	33278	39174.196445177014	0
0	33283	39182.481849908422	0
0	33288	39185.96565119886	0
0	33295	39194.63488608203	0.23949364362
0	33328	39223.171256058078	0
0	33336	39235.127976605022	0
0	33351	39248.588015961291	0
0	33381	39298.729978033267	0
0	33458	39399.03211462677	0
0	33473	39431.612357410618	0
0	33477	39435.231783282634	2.91539786907
0	33491	39458.137582693774	0
0	33501	39465.412847081119	0
0	33523	39493.843635682744	0
0	33528	39493.988120308445	0
0	33538	39504.705448373177	0
0	33568	39568.253761652587	0
0	33573	39570.670147018902	0
0	33588	39596.076688129567	0
0	33606	39612.274022063037	0
0	33651	39666.76173342834	0
0	33673	39694.790559513558	0
0	33686	39697.669010039277	0
0	33698	39709.978783075394	0
0	33731	39744.531645804043	0
0	33755	39772.763629567386	0
0	33764	39779.538557586934	0
0	33819	39835.003651108481	0
0	33841	39853.906576230591	0
0	33852	39862.956658689453	0
0	33864	39873.227597092414	0
0	33893	39904.26169691939	0
0	33903	39918.149218805811	0
0	33911	39937.328037155267	0
0	33949	39997.805108047427	0
0	33963	40004.052160342667	0
0	33973	40016.87264256247	0
0	33988	40044.264867299003	26.353522783713
0	33993	40052.845934303508	24.978815816317
0	33995	40064.825455338686	31.295214159779
0	33997	40068.440346122737	22.936527050565
0	34003	40072.83734375251	0
0	34027	40082.352681681817	0
0	34046	40094.019279909431	0
0	34050	40100.435044913432	1.861304232434
0	34073	40119.577399585047	0
0	34083	40151.170243979446	0
0	34121	40177.178644238844	0
0	34132	40179.948002665316	0
0	34156	40197.031065317716	0
0	34163	40214.521933995247	0
0	34193	40262.056919285515	0
0	34203	40275.299525618962	0
0	34228	40302.753243510454	0
0	34243	40320.763181071203	0
0	34258	40333.762199114926	0
0	34296	40390.133688750419	0
0	34304	40405.748883950045	0
0	34315	40413.984868030782	6.674836090242
0	34317	40417.210341894494	6.716553389788
0	34331	40443.261417147778	0
0	34358	40483.60590291881	0
0	34365	40487.460630861569	0.400980923611
0	34373	40493.159014070809	0
0	34377	40501.856358485667	4.425207944406
0	34386	40515.777260371318	0
0	34390	40516.953761174921	1.101152127371
0	34398	40524.02797072118	0
0	34413	40547.226824016006	0
0	34438	40568.214046956673	0
0	34466	40589.552144822754	0
0	34478	40599.000706820665	3.996436080466
0	34480	40599.061264379104	3.301274335303
0	34485	40600.679268829942	1.093352763242
0	34501	40609.798923902506	0
0	34521	40615.99655458781	4.488815377503
0	34526	40617.731752713396	2.367676945405
0	34528	40619.957509111505	2.236618241478
0	34541	40630.530118829901	0
0	34548	40642.219007266227	0
0	34561	40661.628542917786	0
0	34583	40697.098527893573	0
0	34606	40713.196055530551	0
0	34615	40719.264154047919	5.878266665891
0	34617	40720.417736527711	3.630003880761
0	34636	40729.209670408345	5.294940725678
0	34658	40749.017710297107	0
0	34766	40869.393707336362	0
0	34773	40885.987481212451	0
0	34823	40963.072110576842	0
0	34833	40982.78766094463	0
0	34841	40986.079497408159	0
0	34853	40999.500462216629	0
0	34865	41009.08092051297	9.240879547137
0	34881	41039.989804104815	0
0	34893	41046.291326038616	0
0	34914	41081.568023914955	0
0	34928	41092.845705899409	0
0	34939	41097.733521135634	0
0	34948	41108.225072869906	0
0	34955	41118.559597623711	1.343403249769
0	34966	41130.580992105717	0
0	34973	41145.840100935107	0
0	34986	41149.735464661366	3.070572385249
0	34990	41152.333364438361	5.175598504916
0	34997	41163.685327927238	8.850291793612
0	35038	41222.814694514778	0
0	35053	41236.744657696901	0
0	35066	41244.163530549178	0
0	35076	41255.833250444494	0
0	35096	41296.333021893275	0
0	35100	41302.374085316658	2.324939304254
0	35108	41318.935145991346	0
0	35123	41351.092521370156	0
0	35133	41358.119953881062	0
0	35178	41409.929855180909	0
0	35183	41414.057016890471	0
0	35188	41448.29259846588	0
0	35193	41455.947569233722	0
0	35205	41462.286627059987	4.616585503654
0	35210	41465.426783696354	3.41390604038
0	35219	41468.543128796877	0
0	35233	41482.293446317204	0
0	35243	41484.465586771006	1.594313000211
0	35247	41487.4143934259	3.085610582111
0	35258	41497.459914679359	0
0	35270	41510.240777312332	3.501432438469
0	35289	41519.072659108662	0
0	35308	41533.153061451536	0
0	35313	41535.902635035453	0
0	35363	41600.567157914811	0
0	35379	41614.877324943158	0
0	35386	41620.93486707241	0
0	35428	41674.908703401277	0
0	35439	41683.321613906056	0
0	35488	41770.423087021016	0
0	35493	41777.22511334143	0
0	35508	41789.374071778216	4.773005130431
0	35518	41792.801238328187	0
0	35523	41793.303898362192	0
0	35533	41802.942104730566	6.90260948821
0	35540	41803.95101758778	2.071225931102
0	35553	41817.503812561228	0
0	35560	41829.654328360963	1.49114438694
0	35578	41844.964932124628	0
0	35613	41902.697167143071	0
0	35628	41939.832908828725	0
0	35648	41963.686527092008	0
0	35652	41966.87301218722	0.960810087878
0	35716	42038.707756318439	0
0	35741	42059.397160295526	0
0	35746	42064.781933014168	0
0	35761	42085.237047144988	0
0	35768	42092.805806940997	0
0	35773	42093.469976343976	0
0	35780	42102.756375788589	7.568167084278
0	35782	42103.206453482111	4.966048571279
0	35788	42120.578575430472	0
0	35796	42130.561629992103	0
0	35801	42132.846247917447	0
0	35834	42211.581462897837	0
0	35842	42223.630457469554	9.904859597029
0	35856	42243.587040671987	0
0	35863	42253.551321795824	0
0	35873	42284.491234262945	0
0	35877	42300.528076683672	3.68164505623
0	35885	42303.996581489262	1.176549799622
0	35893	42319.291937628452	16.138993119283
0	35905	42325.537602679601	2.486954440967
0	35918	42341.445384696098	0
0	35922	42347.977985252415	4.473447871081
0	35941	42366.823979882352	0
0	35953	42393.171898134896	0
0	35983	42416.029353188358	0
0	35988	42423.879517290939	0
0	36001	42449.290522936377	0
0	36018	42462.786719218367	12.492860356468
0	36023	42463.985865730527	9.40513702203
0	36030	42471.959550267189	9.614336641889
0	36032	42477.75052889483	14.503352645029
0	36048	42504.468464552301	0
0	36073	42538.673520140775	0
0	36077	42541.118626216382	0.561258965614
0	36085	42549.196243542908	6.582927886659
0	36087	42553.8729537725	5.291726070728
0	36092	42559.289257228804	2.248594818256
0	36098	42562.594234688328	0
0	36106	42573.399326743055	0
0	36116	42583.51792982077	0
0	36120	42585.365168935348	0.832354764382
0	36131	42627.308404064577	0
0	36136	42628.358011062393	0
0	36143	42632.950514723215	0
0	36171	42668.878588293297	0
0	36184	42676.003216208614	0
0	36197	42691.550343715067	2.875537966559
0	36219	42710.842308028501	0
0	36226	42713.327138276563	1.503060857032
0	36238	42723.565098347673	11.551236701968
0	36248	42732.453693405572	18.759848619332
0	36250	42733.153610078989	11.291042089212
0	36279	42768.182692779019	0
0	36293	42778.227346823272	0
0	36301	42789.104037772819	0
0	36321	42808.251331319202	0
0	36338	42840.977204344437	0
0	36349	42855.099344264978	0
0	36358	42871.943967186147	0
0	36363	42884.323044274593	0
0	36371	42888.344643830288	0
0	36378	42896.649358810215	0
[...]
3	47625	55999.467739992744	2.638392310646
3	47633	56001.980751677495	1.590812010851
3	47635	56007.837023232248	6.550212244347
3	47640	56023.401653134163	3.470664500947
3	47645	56036.279335213528	9.777342471836
3	47650	56043.605212376952	2.191428851557
3	47658	56053.442530274911	1.404159803656
3	47660	56053.5981897844	6.971751544255
3	47671	56064.48399299793	1.046392917399
3	47673	56071.490740648057	11.977522713091
3	47675	56072.367470206125	8.82112129683
3	47680	56085.415104856782	2.975207840983
3	47691	56101.386037669372	3.993603752911
3	47693	56101.605097058577	1.477009457121
3	47701	56109.567324610728	11.942700364835
3	47703	56109.668061473865	6.272242323712
3	47705	56111.248314467371	4.551918961415
3	47710	56123.314853624835	2.231201210868
3	47718	56135.496789761826	9.142596000217
3	47720	56139.754874150506	5.939743019041
3	47725	56143.065744158961	2.398169381773
3	47733	56144.78637555018	1.157158716643
3	47735	56148.855948204875	4.732399984084
3	47749	56162.250204654452	1.349249995734
3	47751	56163.584467848361	9.631921422915
3	47753	56163.810413973171	5.021753219016
3	47755	56173.01848701461	18.432253020674
3	47760	56177.448779261379	1.397312456456
3	47765	56188.769583857432	0.405793921536
3	47773	56195.09531966439	1.678090885332
3	47775	56196.082017887373	4.158762938524
3	47786	56200.14546369921	1.954073461135
3	47788	56200.989174253776	3.804163747798
3	47790	56201.8282149994	4.023166152732
3	47798	56219.561294218471	2.641162904778
3	47800	56225.60081331355	13.611960766616
3	47808	56239.06916274091	7.303237478689
3	47810	56240.717774049499	2.242009970437
3	47815	56270.160214654013	7.590272279876
3	47823	56273.547316013812	1.36988650165
3	47828	56275.321507783249	4.20281050534
3	47830	56279.656193619886	4.741578785306
3	47838	56285.184950622914	5.096601092336
3	47840	56286.126820729762	5.448526033881
3	47845	56294.972351453016	5.573747270059
3	47853	56299.205698439659	1.061155595905
3	47858	56306.88664531787	8.469918858288
3	47860	56307.022882728292	0.42956940505
3	47871	56318.679423328994	4.861548643607
3	47876	56323.13293313388	13.749546238441
3	47881	56340.05955288332	4.367212658169
3	47889	56345.478881293085	4.269716383697
3	47891	56346.891705743634	5.646037892955
3	47893	56349.189890129147	33.341779931798
3	47895	56349.325603812389	27.826625218769
3	47903	56358.60835663679	6.864299031122
3	47905	56359.426867879389	2.910492558346
3	47913	56368.686190270765	2.479724303138
3	47924	56371.899320567514	2.064663082066
3	47929	56374.370047626478	4.12735975809
3	47934	56375.166507368406	5.16634611714
3	47936	56376.230128885392	11.213381797504
3	47938	56381.17508985539	6.859439247688
3	47943	56383.582518083115	9.115106391263
3	47945	56385.184435843	1.795543155291
3	47956	56391.139991170542	1.734821990628
3	47961	56394.407212422636	3.894083319919
3	47963	56397.214518901297	4.000501717694
3	47968	56399.672695128849	0.69104943988
3	47970	56401.768395264716	11.144845746044
3	47984	56422.720041132129	7.78545624997
3	47986	56422.810147796078	17.992713297181
3	47988	56423.545051167188	3.180310384307
3	47990	56430.134663705732	10.634554889087
3	47998	56441.561190629896	11.131280503451
3	48000	56442.814484543232	1.263215458596
3	48005	56447.426514920946	1.594014734179
3	48013	56458.897746197207	2.89378797741
3	48015	56461.166492393337	4.922777525195
3	48023	56467.038259889744	5.23299821419
3	48028	56471.543337311023	7.405902933968
3	48033	56476.389652027838	0.83152203531
3	48038	56482.483664521815	14.221435437739
3	48040	56482.565638023595	0.096895247516
3	48048	56502.182557386827	6.084592067518
3	48050	56503.441146979126	1.343421107195
3	48058	56518.036216135859	10.978471152881
3	48066	56522.520660841139	1.241270102004
3	48074	56524.088647818805	7.471313691832
3	48082	56527.821903494588	0.541808474865
3	48084	56528.466107286801	7.383329879935
3	48086	56533.158179939513	9.4827565456
3	48088	56534.167574403199	10.120402483111
3	48096	56543.32186822782	1.816927216107
3	48098	56543.773041452661	4.072661144804
3	48103	56547.609790023194	23.336289280077
3	48105	56547.659056525477	0.490816008591
3	48113	56551.13396796682	2.404426639811
3	48115	56557.087279712134	8.726662591579
3	48126	56576.124666731642	3.31468018805
3	48131	56576.956572323743	0.095586729819
3	48136	56579.230569588128	1.704633186972
3	48141	56582.987343926399	12.317117869902
3	48152	56587.562435895182	13.693826938787
3	48154	56587.865222201745	6.835128920774
3	48156	56587.905167146976	1.587214164666
3	48161	56589.099786690161	3.990283343837
3	48166	56592.172859391968	3.300787170494
3	48168	56596.833475964932	9.498326602917
3	48170	56598.494854791046	6.641181379616
3	48175	56599.552060474307	0.352666082416
3	48180	56605.43466906203	3.122722125966
3	48194	56614.350522058877	2.595484523977
3	48196	56616.393629633488	4.996118042286
3	48198	56616.51356875116	2.716030480651
3	48209	56632.296674065135	21.782059858866
3	48214	56637.209323079195	7.506953652714
3	48216	56640.970303477678	22.796610428879
3	48218	56642.115606659856	22.167600271213
3	48220	56649.720638441012	15.095344331703
3	48228	56658.786736625056	2.09862699607
3	48230	56660.847637648307	9.912675851505
3	48235	56670.974158997996	7.210923732142
3	48240	56678.101843231798	0.021531794272
3	48245	56691.946750705529	4.714878279779
3	48250	56700.586606604515	0.39559492654
3	48258	56714.003307951666	0.068914605364
3	48269	56718.877946392498	13.206762374562
3	48274	56723.644400640363	0.727745117785
3	48282	56735.160210825457	0.20641009237
3	48284	56736.744006822956	20.793242720289
3	48286	56740.811107484806	23.536947218529
3	48288	56743.974453427905	25.428001988968
3	48290	56745.075232165068	11.521143868797
3	48298	56753.560586567848	3.470340823397
3	48306	56762.28495042565	0.92278944692
3	48308	56762.825058716749	0.616525533203
3	48310	56762.918181256655	9.446727046111
3	48315	56764.571220347842	0.456996326708
3	48320	56767.895565640155	3.299033188529
3	48325	56772.747602185546	3.777882766333
3	48336	56785.679140013841	3.456941069753
3	48338	56788.061286391626	3.270266498657
3	48340	56791.982977703641	9.183170262862
3	48345	56805.448288568992	0.069957730208
3	48350	56812.063616554603	0.231985314463
3	48355	56815.639902255991	2.582663789277
3	48363	56839.246692221835	0.551367177749
3	48365	56840.560670330844	6.347126771287
3	48373	56846.302942274841	3.147781590033
3	48375	56849.7230197806	9.136157298899
3	48380	56855.120517422358	1.373722909414
3	48391	56864.781806097764	6.509607495843
3	48393	56865.696821111616	3.509234279496
3	48395	56866.442656643631	4.481085511224
3	48400	56868.343887427668	0.42451727251
3	48411	56877.685440669898	2.22801722357
3	48419	56882.991338888265	7.168855356041
3	48424	56884.460362585221	2.491796276133
3	48429	56884.549587663197	0.0406530993
3	48431	56885.051310774829	3.08085724967
3	48433	56890.312384606403	13.220578438996
3	48435	56890.934820829676	7.20172510054
3	48443	56899.232551966792	2.876713522225
3	48445	56900.03618105727	6.030533955734
3	48453	56904.933063056578	3.390116015155
3	48455	56906.756166336848	4.048877070934
3	48466	56915.860593269767	5.209489248977
3	48468	56917.673498195093	4.615646196389
3	48470	56920.796126766489	6.152250793732
3	48475	56928.657213464563	4.586169818869
3	48483	56936.222919131606	3.070125999745
3	48485	56936.761642827393	3.784823695165
3	48490	56947.905349213152	3.943977060462
3	48501	56955.55232091829	6.651463586505
3	48503	56961.589535541247	13.133243360077
3	48508	56969.902400477359	21.03041631901
3	48513	56972.328791334962	1.286241581735
3	48515	56974.331635259892	5.526037499793
3	48520	56981.399666047321	5.569306649349
3	48525	56981.793300274686	0.165529372259
3	48530	56982.303386755132	0.097534362261
3	48535	56986.51517817589	3.34858627947
3	48540	57007.191735332021	1.351620709362
3	48545	57017.732380105819	2.580095367593
3	48556	57038.155580324955	2.995105623954
3	48558	57041.164122377896	6.591916043518
3	48560	57046.05480631933	9.90273832113
3	48568	57054.21596449843	0.017197516346
3	48576	57056.148069632193	1.52340870542
3	48584	57058.415581568563	3.015235286202
3	48586	57060.63334748071	6.658486124799
3	48588	57062.955105759537	6.398111842317
3	48593	57065.703125227667	1.216217809025
3	48595	57068.254728961125	11.643111702675
3	48603	57081.50608780492	10.474422682094
3	48605	57083.039002125546	8.331875120758
3	48613	57089.990799104589	4.493079732388
3	48621	57101.76211113052	7.290397177091
3	48623	57102.171466233048	15.477897552257
3	48625	57103.729271684662	3.578078157988
3	48630	57109.759854796128	0.432315338368
3	48638	57113.113308142791	0.66076987613
3	48640	57118.162035030328	6.512328358239
3	48651	57127.43998156217	6.674230960134
3	48659	57142.824305194443	21.115961835479
3	48670	57146.484080071708	19.973973728605
3	48672	57147.375789772182	4.263530867515
3	48674	57148.431641302726	14.65865985035
3	48676	57148.517966670779	9.380256766056
3	48678	57152.220295939072	8.608642551184
3	48689	57158.547450661655	1.382165313498
3	48694	57176.426892830899	31.637807649445
3	48702	57186.862333213492	34.126042077362
3	48704	57187.120788756659	8.205405730645
3	48706	57188.442803359039	1.835209556589
3	48708	57196.565854664876	43.635776364958
3	48710	57197.860166031244	33.572198504337
3	48718	57204.733465405443	6.381741744711
3	48729	57214.40311775571	13.160287669086
3	48734	57216.936972005156	2.349860030143
3	48736	57217.575195162182	7.585516858171
3	48744	57228.751460169507	16.307588361358
3	48746	57229.02007894994	16.571891334425
3	48751	57231.007135839652	5.613988796849
3	48753	57233.284225269962	3.207217383669
3	48755	57234.295301461707	9.226338895649
3	48763	57242.304806306476	1.389456323403
3	48768	57250.525146202601	2.166188794023
3	48773	57253.182067152129	15.503410698016
3	48775	57260.233015686082	7.319826303627
3	48783	57266.812606806218	1.766161845753
3	48785	57268.834368423138	4.466277405324
3	48793	57269.647421877754	0.28875164539
3	48795	57270.12267870248	1.153927356022
3	48800	57275.371295213645	4.287307159057
3	48808	57281.837304279079	1.505314117807
3	48813	57287.071986236758	5.509829161936
3	48815	57291.817453346459	9.198176244686
3	48820	57296.361519553152	2.111236624641
3	48831	57311.905068923654	1.339078829965
3	48833	57312.508044172144	9.428703169959
3	48838	57312.818579441339	2.093251247045
3	48840	57316.781177190424	3.964243807631
3	48845	57328.184156605206	1.426518290566
3	48850	57336.575932493127	5.569745177213
3	48855	57343.416232036531	0.960632765922
3	48860	57352.781029436637	0.807107254184
3	48865	57356.668100673341	3.856865252346
3	48873	57381.84601124638	15.638597525898
3	48878	57389.011277107282	10.94152888559
3	48880	57390.641371372072	2.297081990721
3	48885	57414.092067982306	6.019144579204
3	48896	57414.663775263967	0.368171539296
3	48898	57416.37904403077	2.076312772811
3	48900	57419.275470335047	4.862472542977
3	48905	57423.814866471877	0.54422848056
3	48910	57432.725746830353	0.642949784251
3	48915	57455.201411102398	4.536301673125
3	48923	57462.83813265196	5.234618408864
3	48931	57463.47378020742	0.188869565252
3	48936	57464.509157988824	5.303154114894
3	48947	57469.950277941392	6.798301968304
3	48949	57471.444331765549	1.573539547571
3	48951	57474.004375265966	6.297125110351
3	48953	57479.664962434042	15.63863971568
3	48955	57483.041671189015	15.599761519482
3	48963	57502.931291338917	0.950491206336
3	48965	57503.1824928917	1.906156208934
3	48973	57518.967987900962	0.940869373837
3	48975	57521.564165343551	3.344591988898
3	48980	57532.705584976094	4.97923552205
3	48985	57540.188554192319	0.880636503497
3	48993	57548.013651764789	1.732306129142
3	48995	57548.357122111354	1.485006529588
3	49000	57553.570669594254	1.05369717004
3	49008	57558.310271040978	1.703954063066
3	49010	57558.861362572864	3.574744536926
3	49015	57562.251448026693	3.063293205151
3	49020	57564.248156121035	0.515524647068
3	49025	57566.727823531947	1.720160768542
3	49030	57578.89052248829	5.680170750777
3	49038	57584.433565253011	2.958909715471
3	49040	57586.023268368015	6.026622285118
3	49045	57589.921182120678	0.167079240163
3	49056	57599.802784170256	8.061696517715
3	49058	57600.727073094539	2.006508605474
3	49060	57602.299721872759	3.641231001071
3	49065	57607.442654950007	3.819704712743
3	49073	57620.191252899063	2.952255382614
3	49075	57625.728136380094	8.593942960612
3	49083	57637.621263267354	7.300104103001
3	49085	57638.523329033856	3.317427663928
3	49090	57649.764447442178	2.299116049084
3	49095	57651.833013203633	1.542379060765
3	49109	57671.003052384501	6.315781571525
3	49114	57673.573802422534	0.909660927995
3	49119	57683.108424782097	15.536158451711
3	49133	57690.260729166953	3.832845175488
3	49135	57693.252514187781	6.611594086304
3	49137	57706.202924470637	36.872438823348
3	49139	57706.508680974295	19.667897238235
3	49147	57715.061467282233	44.582307705327
3	49149	57718.306480253735	37.528346441709
3	49151	57718.899040721624	28.69456308686
3	49153	57724.629726675892	17.686749432008
3	49155	57726.586024996901	19.991010456742
3	49160	57733.465141573458	6.227009436914
3	49165	57738.421882169465	2.28206681937
3	49176	57761.395183446801	1.68100653114
3	49178	57761.930938867347	5.902680598521
3	49180	57763.455578511222	6.917255920607
3	49191	57768.690989224033	0.98787885842
3	49193	57769.014646161839	3.561655447161
3	49195	57777.405383681635	9.30231501327
3	49200	57779.353651220712	1.637989025065
3	49205	57788.246664114087	1.695246646895
3	49213	57790.875460195823	1.69791994501
3	49218	57795.906414206196	3.267862427802
3	49220	57801.330886268734	12.470016311966
3	49225	57809.968771071218	0.988724476327
3	49233	57820.037530146976	6.221085998843
3	49235	57824.091678460333	7.672200286013
3	49240	57829.280561586272	0.31117289232
3	49248	57832.593200895029	1.193444547943
3	49250	57832.697829280263	0.339177726473
3	49258	57846.744280323232	2.852078229223
3	49263	57850.849958543478	1.901267182395
3	49268	57861.779582755918	18.826868323015
3	49270	57863.208763366226	3.59238904818
3	49275	57880.523987148904	3.515083228433
3	49280	57887.822982474332	5.453529711577
3	49288	57890.910422394845	0.642239928407
3	49290	57896.070903544965	6.807433244135
3	49295	57898.604968255198	0.137113814813
3	49300	57905.56548173444	0.279462023269
3	49308	57912.621775567422	0.650391597014
3	49313	57913.76144343048	2.712512077987
3	49318	57919.594379539034	6.037569253742
3	49326	57929.378562144707	6.228291470671
3	49328	57932.214776842482	12.851914485064
3	49333	57936.049299889559	16.11966631117
3	49335	57936.937930221495	4.308089736692
3	49349	57968.508577564946	3.47155132037
3	49351	57971.069829738376	14.933453861125
3	49356	57973.927476563329	0.969578164137
3	49358	57974.317548189812	6.362837703316
3	49360	57974.954022209275	8.743176040068
3	49365	57991.19604462729	13.151629055001
3	49373	58002.412557528111	2.323919580371
3	49378	58005.982804038405	0.0381912422
3	49380	58007.292548062232	15.694037433371
3	49388	58012.563744730611	2.025849574237
3	49390	58019.227913144904	8.388285065863
3	49395	58025.319943077726	3.526858249693
3	49403	58030.330328975179	3.474208290209
3	49405	58031.223038950504	3.395495353061
3	49410	58041.423340184913	4.611920849648
3	49418	58052.012910037629	4.557612685877
3	49423	58058.741735233793	0.036744836676
3	49431	58064.655667093455	3.924150213201
3	49433	58065.375788511741	23.206547222456
3	49435	58067.508257721477	3.213167111209
3	49449	58086.40627334113	9.880998068293
3	49451	58088.648933782218	7.752804807792
3	49456	58092.899851878274	15.559062872515
3	49461	58096.877595972915	12.675954963217
3	49469	58103.970881767039	11.844885378607
3	49471	58104.584496049343	7.741995295214
3	49473	58104.904185611439	4.281839179971
3	49478	58110.533798886757	10.352480775445
3	49480	58112.13676591005	2.077501169736
3	49491	58114.892077635902	2.478076507739
3	49493	58116.626959911553	3.371139651918
3	49501	58122.994979728105	9.622254540666
3	49506	58124.14075360267	0.090378666846
3	49511	58135.546630829545	4.353151896981
3	49516	58140.651432647478	21.963999764542
3	49524	58147.189302765274	24.25929232907
3	49526	58147.835482521149	5.555598728077
3	49531	58150.295497086662	6.885164100226
3	49536	58152.443117778999	3.580843934434
3	49538	58153.515877511846	13.985693139657
3	49546	58162.517049358423	11.875056585167
3	49548	58163.640167150857	1.217463758987
3	49550	58178.18858131565	23.120210328247
3	49555	58181.984293056972	2.338697106636
3	49560	58199.18088982723	6.810168050195
3	49565	58205.928703100971	0.652352929236
3	49570	58210.22524632425	3.340650917872
3	49575	58223.764875410634	4.978182090698
3	49583	58232.851259615041	4.701268804356
3	49591	58235.895011689415	0.978344902078
3	49593	58237.135167626461	5.802958806906
3	49595	58237.654385875976	4.420057905934
3	49600	58240.880101691201	0.661967573008
3	49608	58280.798116216875	1.336229126612
3	49610	58280.847389795703	3.161829262528
3	49615	58304.032312349651	0.047958530743
3	49626	58314.477182139207	5.546501886303
3	49628	58314.919344589406	2.380582744812
3	49633	58317.64651166641	4.645844773068
3	49644	58326.672467525357	10.373536164986
3	49649	58327.530368491618	7.335717020654
3	49651	58329.297601913922	6.936595067109
3	49653	58329.864570807977	3.009745627708
3	49655	58329.907654125772	5.273417053277
3	49669	58335.710157369659	1.991484907108
3	49671	58336.428955411825	6.265125495729
3	49679	58342.404753768369	7.944830979363
3	49684	58346.392940271446	11.710711459574
3	49689	58347.362145166831	0.672428009551
3	49694	58349.038400045618	9.198269701476
3	49705	58353.468471399745	0.085945908059
3	49707	58353.952443525205	12.230269807101
3	49709	58358.562166238553	9.655563275306
3	49711	58358.60482338078	6.456415538234
3	49713	58359.871520636497	7.437189575281
3	49718	58363.357082694794	0.074342630923
3	49720	58365.698921245392	19.802083599484
3	49725	58374.343037425037	1.376714365554
3	49733	58399.979501690482	10.753124223167
3	49735	58401.122149369657	1.82153704062
3	49740	58418.168008323994	1.154617621258
3	49745	58428.14595051247	2.981142141967
3	49753	58433.418761749574	1.78762871734
3	49761	58440.428694990631	6.006330561828
3	49769	58446.180871565756	16.304579839038
3	49771	58449.024340417605	5.820414713498
3	49773	58449.298136479282	11.43520486042
3	49775	58453.146613640722	10.098046147466
3	49780	58454.751310473163	0.535240577376
3	49791	58476.346975683184	0.182397804865
3	49793	58476.543895056289	18.496191441062
3	49798	58480.271778994075	9.302447915794
3	49800	58482.269123614856	3.880789932108
3	49805	58486.096843060039	3.263454124921
3	49813	58496.863113600012	4.988150965979
3	49815	58497.402899396457	2.036910222997
3	49820	58511.705288517377	0.424819425443
3	49825	58521.349568374153	7.567766301226
3	49839	58544.336576618997	0.995437459789
3	49841	58549.225485512142	20.667314661766
3	49843	58550.398724964099	6.695266887261
3	49845	58553.142119505371	19.923029433313
3	49850	58562.837662833054	8.617936517245
3	49858	58568.878442605147	4.191167352045
3	49860	58577.125130984421	13.732078363562
3	49865	58581.659978882914	0.836810391109
3	49873	58586.827108012153	1.769655843526
3	49875	58587.251368063824	1.741293847841
3	49880	58593.558034017007	0.103162567369
3	49888	58601.004057209632	4.645493543422
3	49893	58607.544145210068	11.161339323118
3	49901	58610.092351272225	7.781192945934
3	49906	58617.539738685979	3.073940986445
3	49911	58623.70799404967	6.061305786523
3	49922	58638.403143583719	29.869786268419
3	49924	58638.637040705507	29.510473483949
3	49926	58640.983329750629	16.44264825759
3	49931	58643.696993283041	0.774241125033
3	49936	58649.009718543386	3.103377819346
3	49941	58659.158308979892	4.866792909312
3	49943	58661.992091018421	35.380188375797
3	49945	58667.180665651675	36.055146320452
3	49950	58669.044121416637	1.241369975345
3	49955	58680.187029013508	4.595607355428
3	49963	58691.664885928272	1.895906036029
3	49965	58693.191555860152	2.663011185465
3	49970	58698.014727776825	3.937553848856
3	49978	58717.067394465558	8.857990796166
3	49986	58726.787556979447	27.725374841083
3	49991	58730.841100244993	4.271801834216
3	49997	58735.980462675601	16.438139259406
3	49999	58740.743967905275	12.474369030396
3	50001	58742.240209955093	11.267898107255
