version 2
run Testbench_1-1137-20170516-19:21:31-59068
attr configname Testbench_1
attr datetime 20170516-19:21:31
attr experiment Testbench_1
attr inifile omnetpp.ini
attr iterationvars $0=300
attr iterationvars2 "$0=300, $repetition=37"
attr measurement $0=300
attr network Toll_road
attr processid 59068
attr repetition 37
attr replication #37
attr resultdir results
attr runnumber 1137
attr seedset 1137
param **.numBooths 3
param **.queue[*].serviceTime exponential(5.11s)
param **.source.interArrivalTime exponential(5.854s)
param **.source.numJobs 1000

vector 0  Toll_road.queue[0]  jobsProcessed:vector  ETV
attr interpolationmode  none
attr source  queueingTime
attr title  "jobs processed, vector"
vector 1  Toll_road.sink  lifeTime:vector  ETV
attr interpolationmode  none
attr title  "lifetime of arrived jobs, vector"
attr unit  s
0	3	9.463139070767	0
0	8	17.390959537719	0
0	13	21.134840011641	0
0	18	23.763160589057	0
0	23	25.988896218231	0
0	27	32.10666859111	5.32723902189
0	33	50.109600439411	0
0	37	53.095531869021	1.646529589638
0	60	77.070985344865	19.211322030734
0	62	77.496419824657	15.800423429288
0	64	79.90369297992	17.828783775005
0	66	80.836912807502	16.441453200706
0	74	87.861044127516	19.10190387829
0	76	88.522306326234	14.609204529277
0	81	90.582404976416	16.084553975011
0	83	93.921212041715	12.16034066146
0	88	94.335044213383	9.445611380547
0	93	97.504800629759	7.157378157215
0	95	98.347078759124	4.313941931243
0	103	109.320727274815	14.724028589944
0	105	110.249848246693	4.530905432991
0	107	115.969660873106	8.07501168614
0	113	121.976784607058	0
0	117	131.564790603843	7.51226346697
0	122	136.489788336624	4.622857915199
0	128	146.052800029368	0
0	133	166.992564137559	0
0	138	181.691347777222	0
0	143	191.389233369617	0
0	147	194.637320529267	1.391203721989
0	153	200.650182056183	0
0	157	207.13221855275	6.177320043504
0	165	218.590002539023	7.596826069232
0	167	226.179913767556	11.468534049751
0	173	229.014110153778	0
0	178	269.830425244995	0
0	197	289.158608591098	18.697394444237
0	199	290.573491717003	18.527482871545
0	201	290.780781630103	15.436334542017
0	212	308.347088131054	31.922558835573
0	214	311.69483559126	26.425623705483
0	216	316.962349339549	30.33353051234
0	218	317.595526943799	21.177911253904
0	235	334.638773534555	35.462385700839
0	240	338.366986016397	30.239082014781
0	248	345.595938611894	24.341145215818
0	250	347.965869614276	22.698844743506
0	261	359.981893510404	31.202523113919
0	263	364.664922231238	35.290582570774
0	265	364.998386639162	34.709104718214
0	276	369.926032918154	32.969444844981
0	284	376.479739607489	36.955968048367
0	289	379.108211588389	39.152158046899
0	291	383.451401533656	35.196012098662
0	302	409.236358471658	59.296731899284
0	304	416.014202155706	57.529588046283
0	306	418.485786828057	52.059117906693
0	308	418.978270436053	51.255926488225
0	313	425.375466304301	56.867640647797
0	315	428.953099998137	58.577971813294
0	323	436.274383015623	64.714792569768
0	328	439.093031303836	61.561074682841
0	333	443.531155463845	56.220941595571
0	335	444.066653389684	49.076388718804
0	337	449.384017828497	52.138419035246
0	339	451.310566724285	31.30878915139
0	350	468.989913962223	38.858847461796
0	361	478.588395360574	45.34271957339
0	363	480.242571677196	41.431510075413
0	365	480.813606730573	38.164061705924
0	379	497.807905561117	44.387786930768
0	381	499.835269184049	40.066076874457
0	389	504.248360450528	37.132614268846
0	391	507.798453696454	32.800928217982
0	399	522.796061449295	47.071950461669
0	401	526.64889464778	48.566604601514
0	406	530.436230681033	48.771268472972
0	414	536.71526362323	46.177635094664
0	416	540.425309484995	48.64470398908
0	421	553.863235998005	59.432181197335
0	426	563.18853710104	59.811264732957
0	431	566.246095128653	62.344245828221
0	433	567.165855139064	57.247702343414
0	456	602.195428508487	88.484773701547
0	458	604.21007147173	74.210730628152
0	466	609.951360137805	76.568463299704
0	471	620.778303748951	86.490398753903
0	473	623.924325795749	74.380219516125
0	475	626.77956013085	65.143193488572
0	483	631.279580485012	66.04817931098
0	491	633.417902270664	60.856019887843
0	496	637.208540405625	62.501551351422
0	498	637.944120675922	61.3565064296
0	503	651.78998317494	72.967653601376
0	505	653.074186243447	73.318698471093
0	507	655.314951176517	62.081590728268
0	512	655.971462176329	57.967729883445
0	514	657.867836450682	53.059148964772
0	525	672.537229742268	67.509947198583
0	530	673.37730481572	58.862344943416
0	532	673.889686498563	44.718325712798
0	534	676.521333289142	45.565308156501
0	536	677.691129470884	44.590938797679
0	538	678.424911394412	45.197804759528
0	540	679.277115635711	44.150611426087
0	545	686.995628710066	41.590872755218
0	550	694.101992253778	38.744353061967
0	552	698.809955665753	39.942981829175
0	554	704.985916743127	39.016499055866
0	559	706.797793061524	38.530542800602
0	561	706.925014811671	34.054592493214
0	581	719.780652013916	35.269061502067
0	586	721.764751625843	34.752337395916
0	588	723.925592368284	18.580431173124
0	590	724.208468496597	11.801324954914
0	595	729.282131004805	16.281699392213
0	597	734.730959670515	18.811329280869
0	602	737.97137699275	20.836719426971
0	604	740.600691228045	22.800170332243
0	606	747.71046880711	28.083644058704
0	608	747.729924441489	26.647230751537
0	622	752.953728545354	27.035645937958
0	624	754.116227287485	18.191467851485
0	650	782.129593340254	32.626682045575
0	661	788.509648500563	37.860247544784
0	663	793.79347861336	42.76910707393
0	665	799.073114462228	47.720587695576
0	667	799.284278561427	34.717000335963
0	672	808.436731453422	42.564255185717
0	674	818.602915476747	43.234006687764
0	688	838.684242869596	62.388292741334
0	702	847.706637874092	69.46852497597
0	704	850.406481764122	71.361642665956
0	715	867.00919403163	87.809847710515
0	717	874.925535937686	92.967298962505
0	719	881.246060194231	98.309397685962
0	724	888.591667247343	103.82463460214
0	726	889.063697882405	102.61080874616
0	728	893.178424737801	88.078130798997
0	733	899.524698294106	72.660683720996
0	735	905.406583003147	76.881150929338
0	743	912.182682339945	76.795299681698
0	745	913.847570437466	76.197868626017
0	747	915.83268837417	76.933170740997
0	749	916.405465144611	74.696338523343
0	751	922.153575211893	80.296733660915
0	762	928.041964665329	83.04077963687
0	764	929.111350613499	76.754453428835
0	766	936.402135409921	83.752180282416
0	768	942.266224822985	77.066214870203
0	770	949.698953599307	64.538764112107
0	772	951.236335925201	52.542061004717
0	777	964.370655602255	58.354818101049
0	779	967.70962293638	55.68314316626
0	781	969.446560498573	44.175060119622
0	789	997.922521704582	71.003042234375
0	791	999.865934663138	71.917332744165
0	796	1005.813653285895	47.953325043092
0	798	1008.09562717051	31.30768217901
0	803	1011.00652104816	31.340216847159
0	811	1020.313558449417	16.818945707241
0	816	1027.442667768257	18.760326329458
0	821	1032.301469423558	21.054864260878
0	832	1040.93171606833	22.666260848055
0	834	1041.749453836338	17.577596024488
0	839	1045.43928575435	15.43031164712
0	850	1050.638730122152	15.651568660323
0	858	1058.437437078669	22.647403203356
0	860	1061.156054015209	24.306420377037
0	871	1066.201413145237	22.985420759992
0	873	1066.902712784015	20.997532546647
0	875	1073.894823240562	25.566436818285
0	880	1079.417434910387	30.829158125157
0	888	1092.208033916047	40.541609298122
0	890	1097.782969486549	43.940804530571
0	892	1099.074013315669	36.931759234682
0	894	1102.342071434878	37.958830006489
0	896	1104.274114564107	38.888584822672
0	898	1106.889139887542	28.215969186772
0	903	1113.160950946899	24.820878848657
0	911	1121.497142835292	31.318296631714
0	913	1122.363678352387	12.80389676929
0	915	1123.512655279095	9.799244024399
0	917	1124.154082780075	7.310050093492
0	923	1132.490178256248	0
0	930	1133.569264996833	0.670137486495
0	941	1142.897791252556	9.62521771754
0	943	1143.683430305084	9.897561193629
0	948	1146.624432845904	5.763554455623
0	950	1148.609024193762	7.619073855371
0	952	1150.045359753725	6.306062849985
0	960	1152.200580718718	0.881553383204
0	962	1156.40479979947	4.401894380677
0	968	1176.909011385548	0
0	973	1181.999531701665	0
0	978	1198.61076109037	0
0	983	1203.980211903944	0
0	990	1206.050670973053	1.287374630043
0	992	1210.590588039294	4.822475017186
0	998	1220.37350738728	0
0	1002	1224.944666872113	3.373381974979
0	1013	1228.559047975636	2.010913684821
0	1015	1228.782432968692	1.497461594383
0	1020	1230.30436715173	2.501773285403
0	1028	1246.65370021641	16.410803125872
0	1030	1249.637674895188	14.175721141297
0	1032	1249.698226852863	5.354129775985
0	1040	1264.892072341158	12.571938957043
0	1042	1266.606616698417	11.664032130801
0	1050	1284.710324754843	13.570567238417
0	1058	1290.787065652118	11.19572508181
0	1063	1294.618347025371	6.212555934522
0	1068	1306.315942859301	16.704672772089
0	1070	1307.353281347133	14.33114506489
0	1078	1325.911045235935	29.077355968182
0	1080	1327.792647777986	6.191866104268
0	1085	1334.554649312024	11.449446750828
0	1090	1344.935242511337	13.332205637483
0	1095	1349.481259600128	4.960472094324
0	1097	1349.844123849206	3.065455277166
0	1102	1352.576354524065	2.531345605352
0	1110	1358.320467124226	2.445806628777
0	1115	1360.881034059887	2.668401624634
0	1117	1364.866541694304	5.817875588097
0	1125	1375.322085239464	5.001309569597
0	1130	1382.709596728862	7.983163409865
0	1141	1390.310518725652	13.031700553947
0	1146	1398.36163952327	12.576783826228
0	1151	1405.469223026249	17.186917041995
0	1156	1408.872556008628	20.087823638361
0	1182	1429.844484733913	32.638249968786
0	1187	1435.594988425797	30.554258571063
0	1189	1438.499882132737	31.108128126993
0	1191	1440.145987577969	24.313428912033
0	1193	1441.178450366878	23.262376555046
0	1195	1441.203650382305	17.968635707913
0	1209	1446.78897606924	23.018382665981
0	1211	1451.7613089743	25.998857397267
0	1213	1452.257480115973	24.203655612655
0	1218	1464.655907892852	35.816195806224
0	1220	1466.977968559115	37.142867502508
0	1225	1474.121435370367	43.687343813286
0	1227	1476.3495702763	35.019812631691
0	1244	1491.150188246803	44.77126555018
0	1246	1491.978479486593	45.474853977281
0	1248	1492.909350226284	46.142427669369
0	1253	1501.169561266792	47.345994798378
0	1258	1514.866545843913	46.210116836622
0	1260	1521.975786388453	43.655958795309
0	1262	1526.037916072101	46.230083954815
0	1267	1531.568600449628	51.587783423366
0	1269	1531.771547835176	51.529744004234
0	1274	1533.943789033785	43.228993626966
0	1276	1544.844572777847	48.81589643326
0	1278	1547.324044257377	35.149672892974
0	1286	1551.434911407367	24.583561218078
0	1297	1558.429458350751	26.063655634126
0	1299	1558.442492271168	9.164109840923
0	1310	1570.623259049253	19.854296152478
0	1318	1579.17464914757	26.945937615511
0	1323	1580.586992531716	26.258244518654
0	1325	1582.399209607483	24.889682706802
0	1333	1584.531194287414	24.802124398039
0	1335	1586.297062465606	22.300550436777
0	1340	1589.297297594441	23.031841556766
0	1348	1600.7595259655	28.104516780093
0	1356	1610.071767855396	36.33710458268
0	1364	1619.921382995144	40.257232702576
0	1369	1621.972705799924	38.589879737671
0	1371	1622.357777583145	38.921778103686
0	1373	1624.675418001818	35.798581997094
0	1375	1624.876912975952	28.797646431957
0	1380	1632.254575906103	34.814857687961
0	1391	1642.622834251877	37.539726206385
0	1393	1642.674204235889	34.666277945032
0	1395	1643.079893406455	32.98891284409
0	1403	1652.6799695805	39.996637853282
0	1411	1656.638002669228	36.103254813855
0	1416	1659.070773454328	30.390407016957
0	1424	1670.204354386226	35.124048353372
0	1426	1674.783240483627	38.8394515418
0	1434	1681.592976951906	41.226997931347
0	1436	1683.144332323719	37.989927278254
0	1441	1686.419128083912	37.439029535208
0	1443	1689.003148590378	35.958302126415
0	1445	1698.230676993038	42.483362749629
0	1447	1700.13791946567	42.351097039065
0	1449	1700.302754788204	40.021697986914
0	1457	1707.140228875728	42.638350151396
0	1465	1715.386392987058	35.371934684373
0	1470	1722.547549657075	41.713063427505
0	1475	1731.148906227825	45.091111083198
0	1483	1751.754565920323	48.673326030282
0	1486	1753.818206712406	48.177615493753
0	1488	1754.148152454262	47.007271126597
0	1490	1755.044333058305	43.711477529617
0	1492	1759.32250274539	41.787657629005
0	1494	1762.489416982795	33.412015169835
0	1496	1764.541781225435	33.323341415114
0	1498	1765.579043373185	27.516296362945
1	5	9.804139888343	0.341000817576
1	10	17.686111381587	0.295151843868
1	15	22.77251945767	1.637679446029
1	20	23.851834940373	0.088674351316
1	28	32.10666859111	6.117772372879
1	30	34.807216536811	8.027786967591
1	38	53.095531869021	2.98593142961
1	61	77.070985344865	25.621983065482
1	63	77.496419824657	19.636756510526
1	65	79.90369297992	18.207696584551
1	67	80.836912807502	18.762003602587
1	75	87.861044127516	23.46558452072
1	77	88.522306326234	19.763166077008
1	82	90.582404976416	16.669303179459
1	84	93.921212041715	19.42336104031
1	89	94.335044213383	12.574172833128
1	94	97.504800629759	12.615367796923
1	96	98.347078759124	7.99965628658
1	104	109.320727274815	15.287590446934
1	106	110.249848246693	15.653149561822
1	108	115.969660873106	10.250718059404
1	110	120.258343546613	12.363694359647
1	118	131.564790603843	9.588005996785
1	123	136.489788336624	12.437261199751
1	125	145.488671051106	13.621740629681
1	130	162.892416577905	16.839616548537
1	135	168.045835743619	1.05327160606
1	140	181.913021111149	0.221673333927
1	148	194.637320529267	3.24808715965
1	150	195.653024161826	2.406907354548
1	158	207.13221855275	6.482036496567
1	166	218.590002539023	17.635104029777
1	168	226.179913767556	15.186737297765
1	170	227.288294568552	12.576914850747
1	175	231.418876665601	2.404766511823
1	198	289.158608591098	19.328183346103
1	200	290.573491717003	20.112277570142
1	202	290.780781630103	18.734772784645
1	213	308.347088131054	33.002641042968
1	215	311.69483559126	35.270306295779
1	217	316.962349339549	31.693137453772
1	219	317.595526943799	30.96670811659
1	236	334.638773534555	38.22115784466
1	241	338.366986016397	39.190598182681
1	249	345.595938611894	37.468034610278
1	251	347.965869614276	26.7110762182
1	262	359.981893510404	34.714868639634
1	264	364.664922231238	35.885551834753
1	266	364.998386639162	35.624046978698
1	277	369.926032918154	39.636750997206
1	285	376.479739607489	39.523151534316
1	290	379.108211588389	39.584440029267
1	292	383.451401533656	43.495347992166
1	303	409.236358471658	60.980969036664
1	305	416.014202155706	66.074575583332
1	307	418.485786828057	60.001172718634
1	309	418.978270436053	52.551601514689
1	314	425.375466304301	57.653122356473
1	316	428.953099998137	60.445274341633
1	324	436.274383015623	65.89925483078
1	329	439.093031303836	67.533440857981
1	334	443.531155463845	65.99919884285
1	336	444.066653389684	56.75643952141
1	338	449.384017828497	54.393753157617
1	340	451.310566724285	54.064967931034
1	351	468.989913962223	48.988136389328
1	362	478.588395360574	48.457328860147
1	364	480.242571677196	46.996895890012
1	366	480.813606730573	42.00254512879
1	380	497.807905561117	55.158360536468
1	382	499.835269184049	46.4151505537
1	390	504.248360450528	44.479168140936
1	392	507.798453696454	40.682707514772
1	400	522.796061449295	47.798535970823
1	402	526.64889464778	50.924783660154
1	407	530.436230681033	52.353940634767
1	415	536.71526362323	55.050301415169
1	417	540.425309484995	49.887680956429
1	422	553.863235998005	62.08263050209
1	427	563.18853710104	68.75748230037
1	432	566.246095128653	62.86882276057
1	434	567.165855139064	63.264005838632
1	457	602.195428508487	92.277275712837
1	459	604.21007147173	90.49941666479
1	467	609.951360137805	79.952019294227
1	472	620.778303748951	87.39540691085
1	474	623.924325795749	89.636420800701
1	476	626.77956013085	77.235453851226
1	484	631.279580485012	69.643213842734
1	492	633.417902270664	68.186501096632
1	497	637.208540405625	64.646658022804
1	499	637.944120675922	63.237131621719
1	504	651.78998317494	75.202368928618
1	506	653.074186243447	74.251856669883
1	508	655.314951176517	75.559463404163
1	513	655.971462176329	62.73810172808
1	515	657.867836450682	59.864104157798
1	526	672.537229742268	67.728542256358
1	531	673.37730481572	68.350022272035
1	533	673.889686498563	59.374726626259
1	535	676.521333289142	47.349972503377
1	537	677.691129470884	46.735104338243
1	539	678.424911394412	45.324720721207
1	541	679.277115635711	46.050009000827
1	546	686.995628710066	51.869124500442
1	551	694.101992253778	48.69723629893
1	553	698.809955665753	43.452316473942
1	555	704.985916743127	46.118942906549
1	560	706.797793061524	40.828375374263
1	562	706.925014811671	38.657764550749
1	582	719.780652013916	46.910229695459
1	587	721.764751625843	37.253161113994
1	589	723.925592368284	36.913178138357
1	591	724.208468496597	18.863307301437
1	596	729.282131004805	16.874987463122
1	598	734.730959670515	21.730528057923
1	603	737.97137699275	22.051746603104
1	605	740.600691228045	23.466033662266
1	607	747.71046880711	29.909947911308
1	609	747.729924441489	28.103099693083
1	623	752.953728545354	31.871034855402
1	625	754.116227287485	28.198144680089
1	651	782.129593340254	46.204833904254
1	662	788.509648500563	39.006737205884
1	664	793.79347861336	43.144077657581
1	666	799.073114462228	48.048742922798
1	668	799.284278561427	47.931751794775
1	673	808.436731453422	43.869453227958
1	675	818.602915476747	52.730439209042
1	689	838.684242869596	63.315334080613
1	703	847.706637874092	71.41068774583
1	705	850.406481764122	72.168368866
1	716	867.00919403163	87.964354933464
1	718	874.925535937686	95.726189616571
1	720	881.246060194231	99.28782321905
1	725	888.591667247343	105.65500473907
1	727	889.063697882405	104.2966652372
1	729	893.178424737801	106.72553560155
1	734	899.524698294106	94.424404355302
1	736	905.406583003147	78.542568430037
1	744	912.182682339945	83.657250266136
1	746	913.847570437466	78.460187779219
1	748	915.83268837417	78.182986562721
1	750	916.405465144611	77.505947511438
1	752	922.153575211893	80.444448590625
1	763	928.041964665329	86.185123114351
1	765	929.111350613499	84.11016558504
1	767	936.402135409921	84.045238225257
1	769	942.266224822985	89.61626969548
1	771	949.698953599307	84.498943646525
1	773	951.236335925201	66.076146438001
1	778	964.370655602255	65.676380681771
1	780	967.70962293638	61.693785435174
1	782	969.446560498573	57.420080728453
1	790	997.922521704582	72.651021325631
1	792	999.865934663138	72.946455192931
1	797	1005.813653285895	77.865051366922
1	799	1008.09562717051	50.235298927707
1	804	1011.00652104816	34.21857605666
1	812	1020.313558449417	40.647254248416
1	817	1027.442667768257	23.948055026081
1	822	1032.301469423558	23.619127984759
1	833	1040.93171606833	29.68511090565
1	835	1041.749453836338	23.483998616063
1	840	1045.43928575435	21.2674279425
1	851	1050.638730122152	20.629756014922
1	859	1058.437437078669	23.45027561684
1	861	1061.156054015209	25.366020139896
1	872	1066.201413145237	29.351779507065
1	874	1066.902712784015	23.68672039877
1	876	1073.894823240562	27.989643003194
1	881	1079.417434910387	31.08904848811
1	889	1092.208033916047	43.619757130817
1	891	1097.782969486549	46.116544868624
1	893	1099.074013315669	45.231848359691
1	895	1102.342071434878	40.199817353891
1	897	1104.274114564107	39.890873135718
1	899	1106.889139887542	41.503610146107
1	904	1113.160950946899	34.487780246129
1	912	1121.497142835292	33.15707073705
1	914	1122.363678352387	32.184832148809
1	916	1123.512655279095	13.952873695998
1	918	1124.154082780075	10.440671525379
1	920	1124.660260064659	7.816227378076
1	931	1133.569264996833	1.079086740585
1	942	1142.897791252556	9.998663742218
1	944	1143.683430305084	10.410856770068
1	949	1146.624432845904	12.838563734449
1	951	1148.609024193762	7.748145803481
1	953	1150.045359753725	9.055409415334
1	961	1152.200580718718	8.461283814978
1	963	1156.40479979947	5.085772463956
1	965	1169.874165368421	17.871259949628
1	970	1177.83738782489	0.928376439342
1	975	1183.326457034744	1.326925333079
1	980	1199.405863716422	0.795102626052
1	991	1206.050670973053	2.070459069109
1	993	1210.590588039294	5.827291696284
1	995	1212.287473920927	6.519360898819
1	1003	1224.944666872113	4.571159484833
1	1014	1228.559047975636	6.987763078502
1	1016	1228.782432968692	2.234298677877
1	1021	1230.30436715173	3.019395777421
1	1029	1246.65370021641	18.851106350083
1	1031	1249.637674895188	19.39477780465
1	1033	1249.698226852863	14.236273098972
1	1041	1264.892072341158	20.54797526428
1	1043	1266.606616698417	14.286483314302
1	1051	1284.710324754843	29.767740187227
1	1059	1290.787065652118	19.647308135692
1	1064	1294.618347025371	15.027006455063
1	1069	1306.315942859301	17.910151768452
1	1071	1307.353281347133	17.742011259921
1	1079	1325.911045235935	32.888908953692
1	1081	1327.792647777986	30.958958510233
1	1086	1334.554649312024	12.953867638306
1	1091	1344.935242511337	21.830039950141
1	1096	1349.481259600128	17.878222726274
1	1098	1349.844123849206	5.323336343402
1	1103	1352.576354524065	5.797685952025
1	1111	1358.320467124226	8.275458205513
1	1116	1360.881034059887	5.006373564438
1	1118	1364.866541694304	6.653909259051
1	1126	1375.322085239464	16.273419133257
1	1131	1382.709596728862	12.388821058995
1	1142	1390.310518725652	15.584085406655
1	1147	1398.36163952327	21.082821351565
1	1152	1405.469223026249	19.684367329207
1	1157	1408.872556008628	20.590250024374
1	1183	1429.844484733913	41.059752363646
1	1188	1435.594988425797	38.38875366067
1	1190	1438.499882132737	33.459152278003
1	1192	1440.145987577969	32.754233572225
1	1194	1441.178450366878	25.345891700942
1	1196	1441.203650382305	23.287576570473
1	1210	1446.78897606924	23.553961394848
1	1212	1451.7613089743	27.990715571041
1	1214	1452.257480115973	26.49502853894
1	1219	1464.655907892852	36.602083389534
1	1221	1466.977968559115	38.138256472487
1	1226	1474.121435370367	44.28633431376
1	1228	1476.3495702763	45.915478719219
1	1245	1491.150188246803	49.820430602194
1	1247	1491.978479486593	45.59955678997
1	1249	1492.909350226284	46.405724716972
1	1254	1501.169561266792	54.402638709877
1	1259	1514.866545843913	61.042979375499
1	1261	1521.975786388453	53.319357381162
1	1263	1526.037916072101	47.718088478957
1	1268	1531.568600449628	51.760768332342
1	1270	1531.771547835176	51.790730808914
1	1275	1533.943789033785	53.701985202843
1	1277	1544.844572777847	54.129777371028
1	1279	1547.324044257377	51.29536791279
1	1287	1551.434911407367	39.260540042964
1	1298	1558.429458350751	31.578108161462
1	1300	1558.442492271168	26.076689554543
1	1311	1570.623259049253	21.344876619008
1	1319	1579.17464914757	28.405686250795
1	1324	1580.586992531716	28.358280999657
1	1326	1582.399209607483	28.070461594421
1	1334	1584.531194287414	27.021667386733
1	1336	1586.297062465606	26.567992576231
1	1341	1589.297297594441	25.300785565612
1	1349	1600.7595259655	34.494069927825
1	1357	1610.071767855396	37.416758669989
1	1365	1619.921382995144	46.186719722428
1	1370	1621.972705799924	42.308555507356
1	1372	1622.357777583145	38.974951520892
1	1374	1624.675418001818	41.239418522359
1	1376	1624.876912975952	36.000076971228
1	1381	1632.254575906103	36.175309362108
1	1392	1642.622834251877	45.183116033735
1	1394	1642.674204235889	37.591096190397
1	1396	1643.079893406455	35.071967115598
1	1404	1652.6799695805	42.588989018135
1	1412	1656.638002669228	43.95467094201
1	1417	1659.070773454328	38.536025598955
1	1425	1670.204354386226	41.523987948855
1	1427	1674.783240483627	39.702934450773
1	1435	1681.592976951906	45.649188010079
1	1437	1683.144332323719	42.77835330316
1	1442	1686.419128083912	41.264723038447
1	1444	1689.003148590378	40.023050041674
1	1446	1698.230676993038	45.185830529075
1	1448	1700.13791946567	44.390605222261
1	1450	1700.302754788204	42.515932361599
1	1458	1707.140228875728	46.859172074438
1	1466	1715.386392987058	50.884514262726
1	1471	1722.547549657075	42.53309135439
1	1476	1731.148906227825	50.314419998255
1	1484	1751.754565920323	65.696770775696
1	1487	1753.818206712406	50.736966822365
1	1489	1754.148152454262	48.507561235609
1	1491	1755.044333058305	47.90345173064
1	1493	1759.32250274539	47.989647216702
1	1495	1762.489416982795	44.95457186641
1	1497	1764.541781225435	35.464379412475
1	1499	1765.579043373185	34.360603562864
1	1501	1767.4767477551	29.41400074486
