version 2
run Testbench_1-461-20170516-19:18:43-51120
attr configname Testbench_1
attr datetime 20170516-19:18:43
attr experiment Testbench_1
attr inifile omnetpp.ini
attr iterationvars $0=125
attr iterationvars2 "$0=125, $repetition=61"
attr measurement $0=125
attr network Toll_road
attr processid 51120
attr repetition 61
attr replication #61
attr resultdir results
attr runnumber 461
attr seedset 461
param **.numBooths 3
param **.queue[*].serviceTime exponential(5.11s)
param **.source.interArrivalTime exponential(5.854s)
param **.source.numJobs 1000

vector 0  Toll_road.queue[0]  jobsProcessed:vector  ETV
attr interpolationmode  none
attr source  queueingTime
attr title  "jobs processed, vector"
vector 1  Toll_road.sink  lifeTime:vector  ETV
attr interpolationmode  none
attr title  "lifetime of arrived jobs, vector"
attr unit  s
0	3	2.518748220635	0
0	10	15.162045671475	7.629029290552
0	12	16.859860182807	8.687406631007
0	18	28.17007977389	0
0	23	32.275908252007	0
0	28	37.738002432385	0
0	32	39.483973643841	1.247527899666
0	38	47.44224955328	0
0	42	54.362064101081	6.175433974074
0	48	70.727519903624	0
0	53	80.070014458875	0
0	60	89.496318219425	5.13467974109
0	62	91.46821814141	5.130024126084
0	68	92.826443150895	0
0	72	98.034319024469	2.508294560693
0	77	102.672193021782	2.841742960458
0	88	115.305999325777	11.95268259277
0	96	122.719683631165	10.32569384346
0	104	125.305694730522	10.132378018741
0	106	126.983731970293	11.093076413278
0	108	129.594946108707	13.301412507636
0	113	133.210461158351	8.632772375858
0	115	138.217849624262	13.460660369323
0	120	150.022865298179	19.110563851003
0	125	155.817136368811	12.573741826142
0	127	163.707091685591	9.84171561156
0	132	167.531047672354	2.718717376714
0	138	170.781788104735	0
0	142	172.67583688052	0.214905921183
0	147	175.289473511465	1.176125441466
0	158	177.667298150497	1.813201120145
0	160	178.821425278882	2.916730666981
0	165	182.279414441723	5.358460678814
0	176	207.053101726138	28.122985647025
0	178	210.955683934257	27.3821893048
0	183	212.469004706915	28.628854450887
0	185	213.787315982025	25.354598124331
0	187	214.307786188055	2.660534775327
0	193	217.008211410615	0
0	198	225.382453677624	0
0	205	228.354893728959	2.610465564445
0	207	230.084200703282	4.179494686941
0	212	238.940959111857	6.256603900704
0	218	242.070495642679	0
0	223	254.004792365881	0
0	228	269.002034464361	0
0	232	280.904293606059	9.753296254629
0	240	287.477046893996	4.789763557561
0	245	291.053024984172	6.908105439792
0	247	294.424065025739	3.734440589966
0	255	297.032310403371	2.172506409413
0	257	302.11059054042	6.22652980461
0	263	311.624335972223	0
0	268	315.672923724806	0
0	272	323.750618846851	6.369054794998
0	283	331.791383937519	2.254068966143
0	288	341.973469255634	11.845033116297
0	290	345.259174812654	14.996230912726
0	292	345.710680295112	11.992644458073
0	297	355.258743153654	5.180640995454
0	303	359.162528348141	0
0	310	363.130960066285	0.321234762303
0	315	365.076694174347	2.155495790346
0	317	369.021716549408	4.875021744662
0	323	370.422878522601	0
0	336	382.617193015715	4.439499330052
0	341	387.086349805928	7.096736852401
0	346	390.496518588488	8.855730191228
0	351	393.904394824014	11.511445891915
0	353	395.83686513747	11.519266113783
0	355	398.104379788167	9.718596614473
0	363	402.096823506269	8.500587283124
0	365	404.855911707197	5.84408894456
0	367	405.38629714645	4.010366573013
0	372	410.018967538861	1.467562712287
0	383	429.434863246933	15.769758540339
0	391	449.703521634297	31.650756371897
0	393	450.684182562615	29.285961083667
0	395	453.263579379739	14.453638023032
0	397	454.097469125518	13.430912636495
0	405	457.5918068894	2.605701469779
0	407	463.632190730164	7.754745221942
0	412	468.764437920022	4.108629568264
0	420	475.52424232531	5.393226693308
0	425	485.305740258816	10.956066260914
0	427	487.610021792512	11.282559263055
0	433	492.22935412429	0
0	438	494.431446705628	0
0	442	501.307900160797	4.257306207052
0	447	512.494525562964	6.733396685585
0	467	545.220793988877	29.578036791246
0	472	545.687982735746	19.456303564117
0	474	551.715213734521	24.488508505795
0	476	551.799343753634	16.721189167507
0	481	555.503838692896	16.616614824401
0	483	556.297477922871	15.958421082967
0	485	556.597108095072	11.167576759134
0	487	557.364354840118	3.967133578724
0	493	565.58658434377	0
0	498	581.161323933536	0
0	505	583.484275028393	1.947867338635
0	510	585.940481660337	2.682182478023
0	518	591.261156410337	6.359087800941
0	523	593.537148728452	7.532835240536
0	528	598.413547849083	7.275424703833
0	530	599.375466040954	6.920915494724
0	535	601.202984873236	4.037278118441
0	537	604.691337395884	4.989600543792
0	545	609.633364940292	4.926363064555
0	550	613.552463191619	3.999018530948
0	552	615.939983289674	2.465309401779
0	563	637.735190564168	19.333358584519
0	586	655.747262321714	26.081134004614
0	591	661.046246548325	25.460442053741
0	596	663.702938521298	22.334002223461
0	601	664.037597115177	21.578724920606
0	607	669.370192942356	23.784672862259
0	609	669.864834515076	22.88953333862
0	611	673.365064086801	23.273059483189
0	613	677.861700901973	26.743758029476
0	615	682.664548683335	28.873982813011
0	617	682.783868807766	25.067726717319
0	619	682.906819371831	19.497477462665
0	621	691.339242948004	27.530129031663
0	623	692.373531756026	27.758530250969
1	11	15.162045671475	12.64329745084
1	13	16.859860182807	9.326843801884
1	15	19.747052852713	11.574599300913
1	20	29.469352577201	1.299272803311
1	25	36.240698922708	3.964790670701
1	33	39.483973643841	1.745971211456
1	35	45.033898529554	6.797452785379
1	43	54.362064101081	6.919814547801
1	45	66.223845669327	18.03721554232
1	50	72.503351391301	1.775831487677
1	61	89.496318219425	9.42630376055
1	63	91.46821814141	7.106579663075
1	65	92.015913598737	5.677719583411
1	73	98.034319024469	5.207875873574
1	78	102.672193021782	7.146168558006
1	89	115.305999325777	15.475549264453
1	97	122.719683631165	19.366366898158
1	105	125.305694730522	12.911704942817
1	107	126.983731970293	11.810415258512
1	109	129.594946108707	13.704290551692
1	114	133.210461158351	16.91692755728
1	116	138.217849624262	13.640160841769
1	121	150.022865298179	25.26567604324
1	126	155.817136368811	24.904834921635
1	128	163.707091685591	20.463697142922
1	133	167.531047672354	13.665671598323
1	135	167.646642128206	2.834311832566
1	143	172.67583688052	1.894048775785
1	148	175.289473511465	2.828542552128
1	159	177.667298150497	3.553950080498
1	161	178.821425278882	2.96732824853
1	166	182.279414441723	6.374719829822
1	177	207.053101726138	30.132147963229
1	179	210.955683934257	32.025567855144
1	184	212.469004706915	28.895510077458
1	186	213.787315982025	29.947165725997
1	188	214.307786188055	25.875068330361
1	190	216.706229763528	5.0589783508
1	195	219.919962888202	2.911751477587
1	206	228.354893728959	2.972440051335
1	208	230.084200703282	4.339772538768
1	213	238.940959111857	13.036253095516
1	215	240.955447003358	8.271091792205
1	220	244.712957895426	2.642462252747
1	225	264.101761175456	10.096968809575
1	233	280.904293606059	11.902259141698
1	241	287.477046893996	16.326049542566
1	246	291.053024984172	8.365741647737
1	248	294.424065025739	10.279145481359
1	256	297.032310403371	6.342685967598
1	258	302.11059054042	7.250786546462
1	260	302.154420672784	6.270359936974
1	265	311.759607963399	0.135271991176
1	273	323.750618846851	8.077695122045
1	284	331.791383937519	14.409819885666
1	289	341.973469255634	12.436154284258
1	291	345.259174812654	15.130738673317
1	293	345.710680295112	15.447736395184
1	298	355.258743153654	21.540707316615
1	300	357.860059080058	7.781956921858
1	311	363.130960066285	3.968431718144
1	316	365.076694174347	2.266968870365
1	318	369.021716549408	6.100518165407
1	320	369.368917161248	5.222222356502
1	337	382.617193015715	12.194314493114
1	342	387.086349805928	8.908656120265
1	347	390.496518588488	10.506905634961
1	352	393.904394824014	12.263606426754
1	354	395.83686513747	13.443916205371
1	356	398.104379788167	13.78678076448
1	364	402.096823506269	13.711040332575
1	366	404.855911707197	11.259675484052
1	368	405.38629714645	6.374474383813
1	373	410.018967538861	8.643036965424
1	384	429.434863246933	20.883458420359
1	392	449.703521634297	36.038416927703
1	394	450.684182562615	32.631417300215
1	396	453.263579379739	31.865357900791
1	398	454.097469125518	15.287527768811
1	406	457.5918068894	16.925250400377
1	408	463.632190730164	8.646085310543
1	413	468.764437920022	12.8869924118
1	421	475.52424232531	10.868433973552
1	426	485.305740258816	15.174724626814
1	428	487.610021792512	13.26034779461
1	430	490.04051541737	13.713052887913
1	435	493.437218553612	1.207864429322
1	443	501.307900160797	6.876453455169
1	448	512.494525562964	15.443931609219
1	468	545.220793988877	39.459665111498
1	473	545.687982735746	30.045225538115
1	475	551.715213734521	25.483534562892
1	477	551.799343753634	24.572638524908
1	482	555.503838692896	20.425684106769
1	484	556.297477922871	17.410254054376
1	486	556.597108095072	16.258051255168
1	488	557.364354840118	11.93482350418
1	490	561.015238757017	7.618017495623
1	495	568.726139293401	3.139554949631
1	506	583.484275028393	2.322951094857
1	511	585.940481660337	4.404073970579
1	519	591.261156410337	8.002857228023
1	524	593.537148728452	8.635080119056
1	529	598.413547849083	12.409234361167
1	531	599.375466040954	8.237342895704
1	536	601.202984873236	8.748434327006
1	538	604.691337395884	7.525630641089
1	546	609.633364940292	9.9316280882
1	551	613.552463191619	8.845461315882
1	553	615.939983289674	6.386538629003
1	564	637.735190564168	24.260516676273
1	587	655.747262321714	37.345430342065
1	592	661.046246548325	31.380118231225
1	597	663.702938521298	28.117134026714
1	602	664.037597115177	22.66866081734
1	608	669.370192942356	26.911320747785
1	610	669.864834515076	24.279314434979
1	612	673.365064086801	26.389762910345
1	614	677.861700901973	27.769696298361
1	616	682.664548683335	31.546605810838
1	618	682.783868807766	28.993302937442
1	620	682.906819371831	25.190677281384
1	622	691.339242948004	27.929901038838
1	624	692.373531756026	28.564417839685
1	626	702.645504869635	38.030503364578
