version 2
run Testbench_1-17-20170516-19:17:25-46328
attr configname Testbench_1
attr datetime 20170516-19:17:25
attr experiment Testbench_1
attr inifile omnetpp.ini
attr iterationvars $0=25
attr iterationvars2 "$0=25, $repetition=17"
attr measurement $0=25
attr network Toll_road
attr processid 46328
attr repetition 17
attr replication #17
attr resultdir results
attr runnumber 17
attr seedset 17
param **.numBooths 3
param **.queue[*].serviceTime exponential(5.11s)
param **.source.interArrivalTime exponential(5.854s)
param **.source.numJobs 1000

vector 0  Toll_road.queue[0]  jobsProcessed:vector  ETV
attr interpolationmode  none
attr source  queueingTime
attr title  "jobs processed, vector"
vector 1  Toll_road.sink  lifeTime:vector  ETV
attr interpolationmode  none
attr title  "lifetime of arrived jobs, vector"
attr unit  s
0	3	2.043528478291	0
0	13	11.545059331376	8.327093723934
0	24	17.002966693144	12.540438877109
0	32	27.047033131279	22.172878051902
0	34	27.363459320544	13.436708716738
0	36	31.681108569014	17.11807168176
0	44	41.877653845159	25.86386802987
0	49	45.294144889484	23.463839963058
0	54	49.394445809639	24.971540772032
0	59	51.214384259575	9.739237311493
0	61	52.914291822045	11.234748284236
0	63	52.920038176357	9.819579213752
0	68	54.726071779631	5.439360526241
0	73	58.526627697907	8.497806876682
0	84	66.470019107886	12.573253218327
0	92	72.06047932201	14.362227746578
0	94	73.82731053885	13.177123091167
0	96	74.819729849053	11.8678946639
0	101	75.952167522315	9.964904527793
0	106	84.017582764159	15.969406781137
0	108	84.456675137151	16.075841043564
0	110	84.791314754181	8.999433087498
0	118	88.815208399452	8.817523790574
0	121	97.166479301778	12.255479004267
0	123	97.81084423213	10.321740727477
1	14	11.545059331376	9.501530853085
1	25	17.002966693144	13.785001085702
1	33	27.047033131279	22.584505315244
1	35	27.363459320544	22.489304241167
1	37	31.681108569014	17.754357965208
1	45	41.877653845159	27.314616957905
1	50	45.294144889484	29.280359074195
1	55	49.394445809639	27.564140883213
1	60	51.214384259575	26.791479221968
1	62	52.914291822045	11.439144873963
1	64	52.920038176357	11.240494638548
1	69	54.726071779631	11.625612817026
1	74	58.526627697907	9.239916444517
1	85	66.470019107886	16.441198286661
1	93	72.06047932201	18.163713432451
1	95	73.82731053885	16.129058963418
1	97	74.819729849053	14.16954240137
1	102	75.952167522315	13.000332337162
1	107	84.017582764159	18.030319769637
1	109	84.456675137151	16.408499154129
1	111	84.791314754181	16.410480660594
1	119	88.815208399452	13.023326732769
1	122	97.166479301778	17.1687946929
1	124	97.81084423213	12.899843934619
1	126	99.100724937898	11.611621433245
