version 2
run Testbench_1-1473-20170516-19:23:26-57456
attr configname Testbench_1
attr datetime 20170516-19:23:26
attr experiment Testbench_1
attr inifile omnetpp.ini
attr iterationvars $0=375
attr iterationvars2 "$0=375, $repetition=73"
attr measurement $0=375
attr network Toll_road
attr processid 57456
attr repetition 73
attr replication #73
attr resultdir results
attr runnumber 1473
attr seedset 1473
param **.numBooths 3
param **.queue[*].serviceTime exponential(5.11s)
param **.source.interArrivalTime exponential(5.854s)
param **.source.numJobs 1000

vector 0  Toll_road.queue[0]  jobsProcessed:vector  ETV
attr interpolationmode  none
attr source  queueingTime
attr title  "jobs processed, vector"
vector 1  Toll_road.sink  lifeTime:vector  ETV
attr interpolationmode  none
attr title  "lifetime of arrived jobs, vector"
attr unit  s
0	3	10.609761116074	0
0	8	20.364112035243	0
0	13	25.42626182772	0
0	18	33.695359265194	0
0	22	36.033747849964	0.642924881095
0	28	44.34289262414	0
0	35	56.360336981239	5.026121510456
0	40	66.634666973876	13.345130017698
0	42	67.890447346653	4.607481161787
0	48	69.979238083149	0
0	53	78.096881653723	0
0	57	83.057281380661	1.60546480083
0	63	91.596736849205	0
0	67	93.858923531473	0.420370655942
0	75	102.600223863951	7.565651060255
0	77	103.668901850467	3.056114659362
0	82	116.274489076932	9.826224395132
0	88	130.131446612289	0
0	93	139.525113529116	0
0	97	140.703381345492	0.822116030614
0	103	142.709138566912	0
0	110	145.320113998344	1.73436241802
0	115	153.392299244975	8.497030120102
0	120	155.010889329384	5.196722318675
0	122	155.453992985243	0.472396921265
0	127	166.342739534515	9.080175187084
0	133	173.704774344541	0
0	138	199.316288353704	0
0	143	208.836298470504	0
0	148	219.509617928388	0
0	153	229.401238162841	0
0	160	240.621414632933	8.730817219874
0	162	244.940999430039	5.06709934871
0	168	251.478133407147	0
0	178	263.499170626667	8.247512977122
0	183	264.515417364249	5.933333116678
0	188	276.291036529304	13.0184228286
0	202	294.477509811622	30.54582980727
0	207	296.002118308161	25.767503354825
0	209	296.213508018112	19.785244923029
0	211	297.541996265411	18.240159387387
0	213	299.318544172534	14.1326508162
0	221	314.62026966789	28.667420788836
0	226	318.279742156463	23.213106621475
0	231	319.780837730329	19.57942529227
0	236	321.468595296929	7.383748468127
0	241	328.763017518862	12.741051176364
0	255	360.332056486552	40.88392723067
0	257	361.332154864115	41.27829905776
0	262	368.137676500541	41.340669730391
0	264	376.038651742038	41.337749215902
0	266	390.108594369993	51.051524371636
0	268	390.210445097107	45.744935833013
0	270	390.453277391997	36.967910043717
0	272	391.338986363418	27.640653539703
0	278	394.52105070225	0
0	283	408.20505660985	0
0	287	413.427853297786	4.523685911219
0	293	421.726835559026	0
0	298	437.187875066292	0
0	303	450.174894651679	0
0	307	451.494879192199	0.342293716872
0	313	454.140783722062	0
0	320	466.484433785246	9.145065563254
0	322	466.527230823643	8.352131580397
0	330	479.613871538095	4.607637210711
0	335	483.078201234064	7.505130986494
0	343	487.006037087314	5.088231774636
0	357	496.063880744013	12.872672744726
0	365	512.517841651769	27.971017031801
0	370	516.040807774875	27.04552598261
0	372	517.438075859691	27.769891881759
0	383	522.749656872523	30.298370171908
0	400	544.348384704801	49.634189376885
0	402	548.36605237355	51.634053428323
0	404	548.731430246292	49.654856552298
0	406	554.244949484406	41.596409007015
0	411	563.279367246455	45.127820763467
0	422	571.379421198622	52.700432804687
0	424	572.934995043357	51.610896260128
0	432	580.713409546514	56.623168089884
0	437	582.593408687123	50.221232279407
0	442	583.56609616827	46.231247728937
0	444	584.408529475871	43.22101121997
0	446	593.933793985355	50.246374203064
0	448	595.277614587415	34.000280664542
0	450	597.175207153532	30.131284353398
0	455	600.862395370023	31.023930046418
0	457	603.00303103242	32.211345847782
0	459	605.721105555255	32.0817361804
0	461	605.810299835799	26.776564725458
0	463	607.563922862607	25.555029410227
0	465	608.10226303828	24.863796753378
0	470	609.867526842625	11.158696740831
0	481	624.981028159643	15.428062392506
0	489	632.341351044356	19.168777510839
0	491	639.684281301009	20.280088889491
0	493	648.562288507396	26.228502717526
0	495	650.368913394655	24.314209902582
0	497	653.754564507722	22.629316550472
0	502	656.542176191695	2.275394517464
0	508	662.191530398711	0
0	513	662.642326837887	0
0	518	667.021590943548	0
0	523	673.810268521455	0
0	527	679.762617026976	2.833958033217
0	532	683.899700712903	0.608782020679
0	537	687.915596675137	0.453938096574
0	543	694.897871018218	0
0	548	704.789630631882	0
0	553	726.817611779497	0
0	557	728.45390921393	1.130300602421
0	563	739.490818494695	0
0	567	742.687040854596	1.897745572168
0	572	744.355307243813	0.076368346767
0	578	788.150172138537	0
0	583	799.681831330208	0
0	590	813.866139076171	9.117935628717
0	595	821.729012785152	8.611254936187
0	603	834.358826953926	13.893123397557
0	614	841.164362434882	16.104935920394
0	616	844.220687508548	16.000061396919
0	624	850.85358798227	16.404975785982
0	626	852.207902864123	14.994618566325
0	631	854.993719743857	14.268493084062
0	633	858.288217657508	11.907180341673
0	635	867.67518117152	17.743870773204
0	637	871.528335787277	16.808121286502
0	643	876.919212592752	0
0	648	899.002127869553	0
0	658	917.491933756218	8.303293199666
0	660	918.421784731627	6.789341716726
0	665	920.614262780801	3.160759896759
0	667	921.551780383619	1.339542938598
0	673	935.499514486252	0
0	678	938.690344812079	0
0	683	943.627924190425	0
0	688	961.620411761717	0
0	695	965.631240720066	2.108589780627
0	700	970.818712549207	6.804213648551
0	711	976.917807459138	10.067117407385
0	716	977.959575621311	7.098353822273
0	718	981.426027166986	6.45071956848
0	720	988.526496905371	12.410913944935
0	722	988.992182847024	11.116022539843
0	728	1007.204217835529	0
0	733	1010.643148149468	0
0	737	1017.498430976165	2.1689519513
0	743	1021.938278568697	0
0	747	1031.276568756946	3.376856709795
0	752	1034.172168063252	2.239625923765
0	758	1036.592630744859	0
0	763	1042.899648689407	0
0	768	1046.669020384708	0
0	773	1050.491038671559	0
0	777	1055.457844672452	3.109427294597
0	783	1073.458092557475	0
0	788	1081.341496647683	0
0	793	1093.142977895794	0
0	800	1095.366450039993	1.777665548013
0	805	1101.348904220511	6.811672254274
0	807	1104.943027203331	3.86327095038
0	824	1112.273796912891	4.135108002202
0	829	1113.706095045577	5.507826826514
0	831	1121.713144132989	12.698776420636
0	833	1127.042738583945	17.519965056548
0	841	1130.576941671115	18.386677132036
0	843	1137.550278174657	24.57984698157
0	854	1142.050683450139	13.504236727696
0	856	1143.583760420731	14.93707004554
0	864	1151.368329921349	10.855028726127
0	872	1153.932228202078	13.283866509391
0	880	1156.605655643839	15.290051230236
0	888	1168.789583341378	24.014258541569
0	890	1168.949070136844	20.177290666567
0	892	1169.807220392031	17.708669473676
0	900	1176.122110027789	23.162835400548
0	908	1180.272587016613	25.536086750501
0	910	1180.298343906005	25.174581319888
0	912	1181.039733273994	19.227950450016
0	914	1182.35935156442	15.735358264995
0	916	1182.537504634692	11.331840454382
0	921	1187.166175561983	11.265879809091
0	926	1189.97340976834	13.082666040155
0	931	1195.087016583906	15.137351015483
0	939	1207.440842702177	24.181077393534
0	941	1212.755110121987	25.284423595235
0	943	1213.235873281731	21.216726757966
0	948	1230.02829413091	33.233126178484
0	950	1231.856001366658	31.74458483991
0	958	1238.204307745303	21.186060323171
0	972	1243.283722477086	7.441494074397
0	977	1254.76817907867	17.120895771162
0	982	1257.90941808359	18.369030171613
0	984	1261.874167325454	21.135213741939
0	992	1267.988152183667	26.737518822666
0	997	1282.714312561977	40.371757976999
0	999	1283.040453060207	32.109816064163
0	1001	1284.573099299817	27.917277993077
0	1006	1290.107296485888	24.185464394177
0	1008	1291.204504742785	23.992116831705
0	1013	1296.079363696101	24.62045389073
0	1033	1330.968980687362	42.616454432603
0	1035	1334.991913271436	39.585001552788
0	1043	1337.961607016384	38.930854271202
0	1048	1341.457948113394	36.504466654587
0	1050	1343.710083888559	35.473169803704
0	1061	1352.066388819261	39.673035109558
0	1063	1354.66669394229	27.690735428278
0	1074	1372.802884508627	42.295227569904
0	1076	1378.291876396767	42.551230818625
0	1078	1379.376897809721	42.666129768248
0	1080	1379.457265853497	39.298871104763
0	1082	1384.779238266112	40.447536619798
0	1084	1385.122894556012	39.938792237092
0	1089	1396.526325560759	49.957837117289
0	1091	1399.33695294632	44.41097072838
0	1093	1400.011755046693	33.02444995003
0	1095	1404.312069959087	32.627111318847
0	1100	1404.804531505729	9.932947105175
0	1102	1407.390299714621	3.077124860079
0	1108	1416.86265435071	0
0	1113	1421.758683354137	0
0	1118	1425.7741021174	0
0	1123	1436.14452214927	0
0	1127	1439.114057742315	1.075477122304
0	1133	1459.470901723244	0
0	1138	1466.345084260978	0
0	1143	1469.077081970464	0
0	1147	1470.218768618948	0.59279819593
0	1155	1478.621477909048	2.250160154704
0	1160	1479.633869507483	1.651190621132
0	1165	1492.807511157716	13.91041488116
0	1167	1493.008355455814	3.476297914298
0	1172	1498.147137690375	1.712041739162
0	1177	1514.320574344652	1.402680722335
0	1183	1524.860381492149	0
0	1187	1535.714569897003	3.38060942557
0	1192	1547.098505336111	10.291206335712
0	1198	1557.46899803559	0
0	1208	1567.087304273777	8.662660248568
0	1213	1575.793113158634	10.688176575964
0	1218	1579.66797056171	14.138432011826
0	1220	1581.608298306276	10.423292091383
0	1225	1586.599223411767	8.042353120496
0	1227	1590.529449435862	4.84764808681
0	1233	1595.39499340548	0
0	1238	1610.255901734447	0
0	1243	1617.672579219889	0
0	1248	1629.480746300962	0
0	1255	1636.291043514371	3.691160329003
0	1257	1639.08870018613	3.459408207917
0	1263	1647.166244660878	0
0	1267	1662.790442642975	15.437155415949
0	1273	1663.571272521405	0
0	1277	1670.589798611701	2.773507669845
0	1283	1675.829334815062	0
0	1288	1683.055998783793	0
0	1293	1684.595542269315	0
0	1298	1688.054462697553	0
0	1302	1695.403816517065	5.935844286896
0	1308	1701.012321188661	0
0	1313	1709.114651823365	0
0	1317	1713.891386145613	4.375333819897
0	1323	1718.542575220324	0
0	1328	1739.880924375307	0
0	1333	1749.931215648609	0
0	1337	1751.498561330089	1.508588187632
0	1343	1755.669606838741	0
0	1348	1758.975911429389	0
0	1353	1764.631075241462	0
0	1358	1766.449386323852	0
0	1363	1773.834364626238	0
0	1367	1779.828093751942	1.787451521014
0	1373	1783.696685667143	0
0	1378	1791.682418960075	0
0	1382	1794.735971869362	0.826232257714
0	1393	1812.2057191517	10.353668418212
0	1404	1819.258034361124	15.456088649008
0	1406	1824.347215250616	19.65311770521
0	1411	1827.575005576065	12.37044783703
0	1416	1831.974288229044	16.086620119237
0	1418	1832.343403589844	15.992798261821
0	1420	1834.362868626016	8.604433068723
0	1425	1834.798106593078	6.610523039519
0	1436	1839.680252494394	5.23086621116
0	1438	1839.816785615945	2.490880418852
0	1443	1840.747557359739	2.837546721657
0	1460	1854.620383566796	16.2998657085
0	1468	1858.848500372664	18.470834634303
0	1470	1860.737228476307	19.851837612388
0	1478	1868.718203426289	27.62597862305
0	1483	1875.275327851299	31.120688537752
0	1494	1891.163683880657	44.537443417677
0	1508	1899.049426022495	48.827058962351
0	1516	1901.345742249425	43.34329544431
0	1518	1901.439077081449	43.196736244068
0	1520	1902.033525272306	34.602978193603
0	1522	1907.9498183864	39.712345358078
0	1524	1909.86886842475	41.094379467221
0	1526	1916.908021410799	40.996922202037
0	1528	1918.829232118953	40.647020532268
0	1533	1921.713244031023	34.501055287722
0	1535	1921.939749555827	29.735974697549
0	1540	1926.165445093738	28.472881642216
0	1545	1936.639479469277	38.155176898793
0	1547	1939.974989484033	41.163787979793
0	1549	1941.322568588416	41.928450674106
0	1551	1942.918056954026	41.901864625067
0	1559	1950.624767536125	29.478212714355
0	1561	1955.969278303671	31.34523079952
0	1566	1958.348037822386	24.48816818331
0	1571	1958.91537054893	14.695960056002
0	1576	1964.481981817952	16.157357649719
0	1578	1971.76939580439	15.373469354849
0	1580	1973.598499338234	15.082080171241
0	1588	1983.915161513584	21.927586849899
0	1590	1986.041456799382	11.987431187515
0	1592	1990.922790669199	14.606491094922
0	1598	1995.742541456576	0
0	1602	2001.00935291008	4.46091280151
0	1608	2012.444131106964	0
0	1613	2017.650853470431	0
0	1618	2019.935159131794	0
0	1622	2021.666252338979	1.13216767773
0	1628	2025.869420124952	0
0	1633	2037.081593804027	0
0	1638	2067.281235945929	0
0	1643	2072.128374964762	0
0	1648	2077.894693972198	0
0	1652	2084.909621116367	6.371988097716
0	1657	2092.656002603006	4.583836534301
0	1663	2094.547316829571	0
0	1667	2097.983363952031	3.129763989306
0	1673	2105.123309458066	0
0	1677	2110.588948120503	1.996638816031
0	1683	2117.357574587138	0
0	1688	2123.139016578845	0
0	1692	2126.22516541819	1.473794816369
0	1703	2136.953358584775	9.79620604263
0	1711	2141.428191964989	11.139383120502
0	1719	2155.844289815178	19.961478531713
0	1730	2170.673682262592	30.908231706176
0	1732	2178.164755915457	37.483540470269
0	1734	2182.604150706065	34.601567557129
0	1739	2188.549879246233	32.712262536584
0	1759	2201.577092245602	45.269587985352
0	1761	2203.358939644275	43.005366650434
0	1769	2213.293931786161	45.259053834642
0	1771	2213.70981290228	26.288072925306
0	1776	2214.340497389376	25.695762981346
0	1787	2227.48842966512	38.427394995837
0	1795	2243.449752308924	49.856699016696
0	1803	2250.753181604715	55.666886561955
0	1805	2251.297692262454	53.707043491475
0	1807	2254.744565445036	55.086890039872
0	1818	2257.590083706024	51.492919007051
0	1820	2260.291015863169	51.996142906923
0	1822	2261.829324854265	47.810104706501
0	1827	2265.675613623657	48.950466148242
0	1829	2267.600455576286	45.841102661517
0	1831	2267.995945455514	45.617958564605
0	1833	2268.455570292266	40.664301380933
0	1838	2280.621356943855	39.257477618893
0	1840	2281.565597639505	34.090627683929
0	1845	2283.173440576668	33.005405507084
0	1850	2294.053683656732	39.074884839317
0	1859	2305.582845184584	50.358753175947
0	1861	2307.969693437362	51.83977032001
0	1863	2308.072849776771	42.661617646748
0	1865	2315.796826018934	35.227824341251
0	1867	2317.094709776796	34.93959049655
0	1869	2332.526437680347	42.482717717121
0	1871	2336.274762443752	40.418682652563
0	1873	2344.045278102118	44.044848772513
1	5	12.303514493392	1.693753377318
1	10	23.372073389926	3.007961354683
1	15	30.698757186219	5.272495358499
1	23	36.033747849964	2.33838858477
1	25	40.411380950189	5.02055798132
1	36	56.360336981239	12.017444357099
1	41	66.634666973876	15.300451503093
1	43	67.890447346653	14.600910390475
1	45	69.280394944082	5.997428759216
1	50	75.992148277523	6.012910194374
1	58	83.057281380661	4.960399726938
1	60	86.692031721297	5.240215141466
1	68	93.858923531473	2.262186682268
1	76	102.600223863951	9.16167098842
1	78	103.668901850467	8.634329046771
1	83	116.274489076932	15.661701885827
1	85	120.560039352809	14.111774671009
1	90	131.10050608763	0.969059475341
1	98	140.703381345492	1.178267816376
1	100	142.137076569271	2.255811254393
1	111	145.320113998344	2.610975431432
1	116	153.392299244975	9.806547664651
1	121	155.010889329384	10.115620204511
1	123	155.453992985243	5.639825974534
1	128	166.342739534515	11.361143470537
1	130	172.001614144119	14.739049796688
1	135	178.669015323052	4.964240978511
1	140	200.18734629099	0.871057937286
1	145	208.891512986607	0.055214516103
1	150	220.768247564265	1.258629635877
1	161	240.621414632933	11.220176470092
1	163	244.940999430039	13.05040201698
1	165	250.068086044075	10.194185962746
1	179	263.499170626667	12.02103721952
1	184	264.515417364249	9.263759714704
1	189	276.291036529304	17.708952281733
1	203	294.477509811622	31.204896110918
1	208	296.002118308161	32.070438303809
1	210	296.213508018112	25.978893064776
1	212	297.541996265411	21.113733170328
1	214	299.318544172534	20.01670729451
1	222	314.62026966789	29.434376311556
1	227	318.279742156463	32.326893277409
1	232	319.780837730329	24.714202195341
1	237	321.468595296929	21.26718285887
1	242	328.763017518862	14.67817069006
1	256	360.332056486552	44.310090144054
1	258	361.332154864115	41.884025608233
1	263	368.137676500541	48.083820694186
1	265	376.038651742038	49.241644971888
1	267	390.108594369993	55.407691843857
1	269	390.210445097107	51.15337509875
1	271	390.453277391997	45.987768127903
1	273	391.338986363418	37.853619015138
1	275	394.180566386728	30.482233563013
1	280	404.664504330802	10.143453628552
1	288	413.427853297786	5.222796687936
1	290	418.181009568484	9.276842181917
1	295	421.903160084989	0.176324525963
1	300	437.504604337304	0.316729271012
1	308	451.494879192199	1.31998454052
1	310	452.731160689001	1.578575213674
1	321	466.484433785246	12.343650063184
1	323	466.527230823643	9.187862601651
1	331	479.613871538095	21.438772294849
1	336	483.078201234064	8.07196690668
1	344	487.006037087314	11.432966839744
1	358	496.063880744013	14.146075431335
1	366	512.517841651769	29.326633652482
1	371	516.040807774875	31.493983154907
1	373	517.438075859691	28.442794067426
1	384	522.749656872523	33.081472894591
1	401	544.348384704801	51.897098004186
1	403	548.36605237355	53.651857045634
1	405	548.731430246292	51.999431301065
1	407	554.244949484406	55.168375790412
1	412	563.279367246455	50.630826769064
1	423	571.379421198622	53.227874715634
1	425	572.934995043357	54.256006649422
1	433	580.713409546514	59.389310763285
1	438	582.593408687123	58.503167230493
1	443	583.56609616827	51.193919760554
1	445	584.408529475871	47.073681036538
1	447	593.933793985355	52.746275729454
1	449	595.277614587415	51.590194805124
1	451	597.175207153532	35.897873230659
1	456	600.862395370023	33.818472569889
1	458	603.00303103242	33.164565708815
1	460	605.721105555255	34.929420370617
1	462	605.810299835799	32.170930460944
1	464	607.563922862607	28.530187752266
1	466	608.10226303828	26.0933695859
1	471	609.867526842625	26.629060557723
1	482	624.981028159643	26.272198057849
1	490	632.341351044356	22.788385277219
1	492	639.684281301009	26.511707767492
1	494	648.562288507396	29.158096095878
1	496	650.368913394655	28.035127604785
1	498	653.754564507722	27.699861015649
1	503	656.542176191695	25.416928234445
1	505	659.264258754635	4.997477080404
1	510	662.279224892457	0.087694493746
1	515	663.702156123118	1.059829285231
1	520	670.499678468047	3.478087524499
1	528	679.762617026976	5.952348505521
1	533	683.899700712903	6.971041719144
1	538	687.915596675137	4.624677982913
1	540	694.331855653096	6.870197074533
1	545	696.124371825583	1.226500807365
1	550	707.54418552878	2.754554896898
1	558	728.45390921393	1.636297434433
1	560	728.664299490336	1.340690878827
1	568	742.687040854596	3.196222359901
1	573	744.355307243813	3.566011961385
1	575	760.802689708622	16.523750811576
1	580	795.533486477249	7.383314338712
1	591	813.866139076171	14.184307745963
1	596	821.729012785152	16.980809337698
1	604	834.358826953926	21.241069104961
1	615	841.164362434882	20.698658878513
1	617	844.220687508548	19.16126099406
1	625	850.85358798227	22.632961870641
1	627	852.207902864123	17.759290667835
1	632	854.993719743857	17.780435446059
1	634	858.288217657508	17.562990997713
1	636	867.67518117152	21.294143855685
1	638	871.528335787277	21.597025388961
1	640	872.155099004771	17.434884503996
1	645	879.029131162568	2.109918569816
1	659	917.491933756218	18.489805886665
1	661	918.421784731627	9.233144175075
1	666	920.614262780801	8.9818197659
1	668	921.551780383619	4.098277499577
1	670	923.172511833488	2.960274388467
1	675	937.507589259571	2.008074773319
1	680	940.849603817604	2.159259005525
1	685	947.056513884046	3.428589693621
1	696	965.631240720066	4.010828958349
1	701	970.818712549207	7.296061609768
1	712	976.917807459138	12.903308558482
1	717	977.959575621311	11.108885569558
1	719	981.426027166986	10.564805367948
1	721	988.526496905371	13.551189306865
1	723	988.992182847024	12.876599886588
1	725	990.897352351557	13.021192044376
1	730	1008.880322069584	1.676104234055
1	738	1017.498430976165	6.855282826697
1	740	1020.112746046094	4.783267021229
1	748	1031.276568756946	9.338290188249
1	753	1034.172168063252	6.272456016101
1	755	1035.094923841829	3.162381702342
1	760	1041.132143270265	4.539512525406
1	765	1043.580874124251	0.681225434844
1	770	1048.357373036524	1.688352651816
1	778	1055.457844672452	4.966806000893
1	780	1055.657924640974	3.309507263119
1	785	1076.537905602008	3.079813044533
1	790	1082.233178882177	0.891682234494
1	801	1095.366450039993	2.223472144199
1	806	1101.348904220511	7.760119728531
1	808	1104.943027203331	10.405795237094
1	825	1112.273796912891	11.19404065994
1	830	1113.706095045577	5.567406134888
1	832	1121.713144132989	13.514875913926
1	834	1127.042738583945	18.028370871592
1	842	1130.576941671115	21.054168143718
1	844	1137.550278174657	25.360013635578
1	855	1142.050683450139	29.080252257052
1	857	1143.583760420731	15.037313698288
1	865	1151.368329921349	22.721639546158
1	873	1153.932228202078	13.418927006856
1	881	1156.605655643839	15.957293951152
1	889	1168.789583341378	27.473978927775
1	891	1168.949070136844	24.173745337035
1	893	1169.807220392031	21.035440921754
1	901	1176.122110027789	24.023559109434
1	909	1180.272587016613	27.313312389372
1	911	1180.298343906005	25.561843639893
1	913	1181.039733273994	25.915970687877
1	915	1182.35935156442	20.547568740442
1	917	1182.537504634692	15.913511335267
1	922	1187.166175561983	15.960511381673
1	927	1189.97340976834	14.073114015448
1	932	1195.087016583906	18.196272855721
1	940	1207.440842702177	27.491177133754
1	942	1212.755110121987	29.495344813344
1	944	1213.235873281731	25.765186754979
1	949	1230.02829413091	38.009147607145
1	951	1231.856001366658	35.060833414232
1	959	1238.204307745303	38.092891218555
1	973	1243.283722477086	26.265475054954
1	978	1254.76817907867	18.925950675981
1	983	1257.90941808359	20.262134776082
1	985	1261.874167325454	22.333779413477
1	993	1267.988152183667	27.249198600152
1	998	1282.714312561977	41.463679200976
1	1000	1283.040453060207	40.697898475229
1	1002	1284.573099299817	33.642462303773
1	1007	1290.107296485888	33.451475179148
1	1009	1291.204504742785	25.282672651074
1	1014	1296.079363696101	28.866975785021
1	1034	1330.968980687362	59.510070881991
1	1036	1334.991913271436	46.639387016677
1	1044	1337.961607016384	42.554695297736
1	1049	1341.457948113394	42.427195368212
1	1051	1343.710083888559	38.756602429752
1	1062	1352.066388819261	43.829474734406
1	1064	1354.66669394229	42.273340232587
1	1075	1372.802884508627	45.826925994615
1	1077	1378.291876396767	47.784219458044
1	1079	1379.376897809721	43.636252231579
1	1081	1379.457265853497	42.746497812024
1	1083	1384.779238266112	44.620843517378
1	1085	1385.122894556012	40.791192909698
1	1090	1396.526325560759	51.342223241839
1	1092	1399.33695294632	52.76846450285
1	1094	1400.011755046693	45.085772828753
1	1096	1404.312069959087	37.324764862424
1	1101	1404.804531505729	33.119572865489
1	1103	1407.390299714621	12.518715314067
1	1105	1409.329056161323	5.015881306781
1	1110	1421.647753081216	4.785098730506
1	1115	1423.826921291189	2.068237937052
1	1120	1432.301163661562	6.527061544162
1	1128	1439.114057742315	2.969535593045
1	1130	1447.543187965776	9.504607345765
1	1135	1461.566796696535	2.095894973291
1	1140	1467.029859455021	0.684775194043
1	1148	1470.218768618948	1.141686648484
1	1156	1478.621477909048	8.99550748603
1	1161	1479.633869507483	3.262551753139
1	1166	1492.807511157716	14.824832271365
1	1168	1493.008355455814	14.111259179258
1	1173	1498.147137690375	8.615080148859
1	1178	1514.320574344652	17.885478393439
1	1180	1524.151659513183	11.233765890866
1	1188	1535.714569897003	10.854188404854
1	1193	1547.098505336111	14.764544864678
1	1195	1548.221231991296	11.413932990897
1	1209	1567.087304273777	9.618306238187
1	1214	1575.793113158634	17.368469133425
1	1219	1579.66797056171	14.56303397904
1	1221	1581.608298306276	16.078759756392
1	1226	1586.599223411767	15.414217196874
1	1228	1590.529449435862	11.972579144591
1	1230	1592.804877465862	7.12307611681
1	1235	1600.683121370411	5.288127964931
1	1240	1616.283701270705	6.027799536258
1	1245	1619.141956779563	1.469377559674
1	1256	1636.291043514371	6.810297213409
1	1258	1639.08870018613	6.488817000762
1	1260	1640.113091409266	4.483799431053
1	1268	1662.790442642975	15.624197982097
1	1270	1663.177153481838	15.823866254812
1	1278	1670.589798611701	7.018526090296
1	1280	1673.762647102252	5.946356160396
1	1285	1682.193933781742	6.36459896668
1	1290	1683.063976833354	0.007978049561
1	1295	1685.179900427619	0.584358158304
1	1303	1695.403816517065	7.349353819512
1	1305	1696.353014867764	6.885042637595
1	1310	1702.666244824213	1.653923635552
1	1318	1713.891386145613	4.776734322248
1	1320	1714.168351106077	4.652298780361
1	1325	1721.78707386408	3.244498643756
1	1330	1747.790145374869	7.909220999562
1	1338	1751.498561330089	1.56734568148
1	1340	1752.714350373716	2.724377231259
1	1345	1756.176089686797	0.506482848056
1	1350	1762.243235193113	3.267323763724
1	1355	1764.770693428028	0.139618186566
1	1360	1767.543997568516	1.094611244664
1	1368	1779.828093751942	5.993729125704
1	1370	1779.879986903531	1.839344672603
1	1375	1787.754457567855	4.057771900712
1	1383	1794.735971869362	3.053552909287
1	1394	1812.2057191517	18.295979540052
1	1405	1819.258034361124	17.405983627636
1	1407	1824.347215250616	20.5452695385
1	1412	1827.575005576065	22.880908030659
1	1417	1831.974288229044	16.769730490009
1	1419	1832.343403589844	16.455735480037
1	1421	1834.362868626016	18.012263297993
1	1426	1834.798106593078	9.039671035785
1	1437	1839.680252494394	11.492668940835
1	1439	1839.816785615945	5.367399332711
1	1444	1840.747557359739	3.421652162646
1	1461	1854.620383566796	16.710372928714
1	1469	1858.848500372664	20.527982514368
1	1471	1860.737228476307	20.359562737946
1	1479	1868.718203426289	27.83281256237
1	1484	1875.275327851299	34.18310304806
1	1495	1891.163683880657	47.00904456711
1	1509	1899.049426022495	52.423185559515
1	1517	1901.345742249425	51.123375189281
1	1519	1901.439077081449	43.436630276334
1	1521	1902.033525272306	43.791184434925
1	1523	1907.9498183864	40.519271307697
1	1525	1909.86886842475	41.631395396428
1	1527	1916.908021410799	48.13353245327
1	1529	1918.829232118953	42.918132910191
1	1534	1921.713244031023	43.531032444338
1	1536	1921.939749555827	34.727560812526
1	1541	1926.165445093738	33.96167023546
1	1546	1936.639479469277	38.946916017755
1	1548	1939.974989484033	41.490686913549
1	1550	1941.322568588416	42.511367084176
1	1552	1942.918056954026	43.523939039716
1	1560	1950.624767536125	49.608575207166
1	1562	1955.969278303671	34.822723481901
1	1567	1958.348037822386	33.723990318235
1	1572	1958.91537054893	25.055500909854
1	1577	1964.481981817952	20.262571325024
1	1579	1971.76939580439	23.444771636157
1	1581	1973.598499338234	17.202572888693
1	1589	1983.915161513584	25.398742346591
1	1591	1986.041456799382	24.053882135697
1	1593	1990.922790669199	16.868765057332
1	1595	1993.265120885202	16.948821310925
1	1603	2001.00935291008	5.266811453504
1	1605	2001.558056316046	5.009616207476
1	1610	2013.43759849289	0.993467385926
1	1615	2018.940005846679	1.289152376248
1	1623	2021.666252338979	1.731093207185
1	1625	2022.512138918405	1.978054257156
1	1630	2032.0460678248	6.176647699848
1	1635	2040.762661096772	3.681067292745
1	1640	2067.593654898161	0.312418952232
1	1645	2076.268059331662	4.1396843669
1	1653	2084.909621116367	7.014927144169
1	1658	2092.656002603006	14.118369584355
1	1660	2093.582994873334	5.510828804629
1	1668	2097.983363952031	3.43604712246
1	1670	2100.189135449195	5.33553548647
1	1678	2110.588948120503	5.465638662437
1	1680	2111.112374865731	2.520065561259
1	1685	2118.759421943258	1.40184735612
1	1693	2126.22516541819	3.086148839345
1	1704	2136.953358584775	12.201987982954
1	1712	2141.428191964989	14.271039422844
1	1720	2155.844289815178	25.555480970691
1	1731	2170.673682262592	34.790870979127
1	1733	2178.164755915457	38.399305359041
1	1735	2182.604150706065	41.922935260877
1	1740	2188.549879246233	40.547296097297
1	1760	2201.577092245602	45.739475535953
1	1762	2203.358939644275	47.051435384025
1	1770	2213.293931786161	52.94035879232
1	1772	2213.70981290228	45.674934950761
1	1777	2214.340497389376	26.918757412402
1	1788	2227.48842966512	38.84369525709
1	1796	2243.449752308924	54.388717639641
1	1804	2250.753181604715	57.160128312487
1	1806	2251.297692262454	56.211397219694
1	1808	2254.744565445036	57.153916674057
1	1819	2257.590083706024	57.93240830086
1	1821	2260.291015863169	54.193851164196
1	1823	2261.829324854265	53.534451898019
1	1828	2265.675613623657	51.656393475893
1	1830	2267.600455576286	50.875308100871
1	1832	2267.995945455514	46.236592540745
1	1834	2268.455570292266	46.077583401357
1	1839	2280.621356943855	52.830088032522
1	1841	2281.565597639505	40.201718314543
1	1846	2283.173440576668	35.698470621092
1	1851	2294.053683656732	43.885648587148
1	1860	2305.582845184584	50.604046367169
1	1862	2307.969693437362	52.745601428725
1	1864	2308.072849776771	51.942926659419
1	1866	2315.796826018934	50.385593888911
1	1868	2317.094709776796	36.525708099113
1	1870	2332.526437680347	50.371318400101
1	1872	2336.274762443752	46.231042480526
1	1874	2344.045278102118	48.189198310929
1	1876	2345.61141132279	45.610981993185
